data_image0
_chemical_formula_structural       U8O64C16H16C16H16C16H16C16H24C16H24C16H24
_chemical_formula_sum              "U8 O64 C96 H120"
_cell_length_a       20.6245
_cell_length_b       16.1559
_cell_length_c       16.2561
_cell_angle_alpha    90
_cell_angle_beta     90
_cell_angle_gamma    90

_space_group_name_H-M_alt    "P 1"
_space_group_IT_number       1

loop_
  _space_group_symop_operation_xyz
  'x, y, z'

loop_
  _atom_site_type_symbol
  _atom_site_label
  _atom_site_symmetry_multiplicity
  _atom_site_fract_x
  _atom_site_fract_y
  _atom_site_fract_z
  _atom_site_occupancy
  U   U1        1.0  0.67176  0.36822  0.10210  1.0000
  U   U2        1.0  0.82824  0.13178  0.60210  1.0000
  U   U3        1.0  0.32824  0.36822  0.39790  1.0000
  U   U4        1.0  0.17176  0.13178  0.89790  1.0000
  U   U5        1.0  0.32824  0.63178  0.89790  1.0000
  U   U6        1.0  0.17176  0.86822  0.39790  1.0000
  U   U7        1.0  0.67176  0.63178  0.60210  1.0000
  U   U8        1.0  0.82824  0.86822  0.10210  1.0000
  O   O1        1.0  0.61153  0.29947  0.06443  1.0000
  O   O2        1.0  0.88847  0.20053  0.56443  1.0000
  O   O3        1.0  0.38847  0.29947  0.43557  1.0000
  O   O4        1.0  0.11153  0.20053  0.93557  1.0000
  O   O5        1.0  0.38847  0.70053  0.93557  1.0000
  O   O6        1.0  0.11153  0.79947  0.43557  1.0000
  O   O7        1.0  0.61153  0.70053  0.56443  1.0000
  O   O8        1.0  0.88847  0.79947  0.06443  1.0000
  O   O9        1.0  0.73173  0.43725  0.13911  1.0000
  O   O10       1.0  0.76827  0.06275  0.63911  1.0000
  O   O11       1.0  0.26827  0.43725  0.36089  1.0000
  O   O12       1.0  0.23173  0.06275  0.86089  1.0000
  O   O13       1.0  0.26827  0.56275  0.86089  1.0000
  O   O14       1.0  0.23173  0.93725  0.36089  1.0000
  O   O15       1.0  0.73173  0.56275  0.63911  1.0000
  O   O16       1.0  0.76827  0.93725  0.13911  1.0000
  O   O17       1.0  0.67753  0.28743  0.23452  1.0000
  O   O18       1.0  0.82247  0.21257  0.73452  1.0000
  O   O19       1.0  0.32247  0.28743  0.26548  1.0000
  O   O20       1.0  0.17753  0.21257  0.76548  1.0000
  O   O21       1.0  0.32247  0.71257  0.76548  1.0000
  O   O22       1.0  0.17753  0.78743  0.26548  1.0000
  O   O23       1.0  0.67753  0.71257  0.73452  1.0000
  O   O24       1.0  0.82247  0.78743  0.23452  1.0000
  O   O25       1.0  0.60772  0.38874  0.22837  1.0000
  O   O26       1.0  0.89228  0.11126  0.72837  1.0000
  O   O27       1.0  0.39228  0.38874  0.27163  1.0000
  O   O28       1.0  0.10772  0.11126  0.77163  1.0000
  O   O29       1.0  0.39228  0.61126  0.77163  1.0000
  O   O30       1.0  0.10772  0.88874  0.27163  1.0000
  O   O31       1.0  0.60772  0.61126  0.72837  1.0000
  O   O32       1.0  0.89228  0.88874  0.22837  1.0000
  O   O33       1.0  0.59879  0.51226  0.59617  1.0000
  O   O34       1.0  0.90121  0.98774  0.09617  1.0000
  O   O35       1.0  0.40121  0.51226  0.90383  1.0000
  O   O36       1.0  0.09879  0.98774  0.40383  1.0000
  O   O37       1.0  0.40121  0.48774  0.40383  1.0000
  O   O38       1.0  0.09879  0.01226  0.90383  1.0000
  O   O39       1.0  0.59879  0.48774  0.09617  1.0000
  O   O40       1.0  0.90121  0.01226  0.59617  1.0000
  O   O41       1.0  0.65586  0.53790  0.48522  1.0000
  O   O42       1.0  0.84414  0.96210  0.98522  1.0000
  O   O43       1.0  0.34414  0.53790  0.01478  1.0000
  O   O44       1.0  0.15586  0.96210  0.51478  1.0000
  O   O45       1.0  0.34414  0.46210  0.51478  1.0000
  O   O46       1.0  0.15586  0.03790  0.01478  1.0000
  O   O47       1.0  0.65586  0.46210  0.98522  1.0000
  O   O48       1.0  0.84414  0.03790  0.48522  1.0000
  O   O49       1.0  0.75654  0.17069  0.48644  1.0000
  O   O50       1.0  0.74346  0.32931  0.98644  1.0000
  O   O51       1.0  0.24346  0.17069  0.01356  1.0000
  O   O52       1.0  0.25654  0.32931  0.51356  1.0000
  O   O53       1.0  0.24346  0.82931  0.51356  1.0000
  O   O54       1.0  0.25654  0.67069  0.01356  1.0000
  O   O55       1.0  0.75654  0.82931  0.98644  1.0000
  O   O56       1.0  0.74346  0.67069  0.48644  1.0000
  O   O57       1.0  0.74508  0.24231  0.60001  1.0000
  O   O58       1.0  0.75492  0.25769  0.10001  1.0000
  O   O59       1.0  0.25492  0.24231  0.89999  1.0000
  O   O60       1.0  0.24508  0.25769  0.39999  1.0000
  O   O61       1.0  0.25492  0.75769  0.39999  1.0000
  O   O62       1.0  0.24508  0.74231  0.89999  1.0000
  O   O63       1.0  0.74508  0.75769  0.10001  1.0000
  O   O64       1.0  0.75492  0.74231  0.60001  1.0000
  C   C1        1.0  0.61317  0.31624  0.35828  1.0000
  C   C2        1.0  0.88683  0.18376  0.85828  1.0000
  C   C3        1.0  0.38683  0.31624  0.14172  1.0000
  C   C4        1.0  0.11317  0.18376  0.64172  1.0000
  C   C5        1.0  0.38683  0.68376  0.64172  1.0000
  C   C6        1.0  0.11317  0.81624  0.14172  1.0000
  C   C7        1.0  0.61317  0.68376  0.85828  1.0000
  C   C8        1.0  0.88683  0.81624  0.35828  1.0000
  C   C9        1.0  0.60732  0.40262  0.39961  1.0000
  C   C10       1.0  0.89268  0.09738  0.89961  1.0000
  C   C11       1.0  0.39268  0.40262  0.10039  1.0000
  C   C12       1.0  0.10732  0.09738  0.60039  1.0000
  C   C13       1.0  0.39268  0.59738  0.60039  1.0000
  C   C14       1.0  0.10732  0.90262  0.10039  1.0000
  C   C15       1.0  0.60732  0.59738  0.89961  1.0000
  C   C16       1.0  0.89268  0.90262  0.39961  1.0000
  H   H1        1.0  0.64590  0.43570  0.38430  1.0000
  H   H2        1.0  0.85410  0.06430  0.88430  1.0000
  H   H3        1.0  0.35410  0.43570  0.11570  1.0000
  H   H4        1.0  0.14590  0.06430  0.61570  1.0000
  H   H5        1.0  0.35410  0.56430  0.61570  1.0000
  H   H6        1.0  0.14590  0.93570  0.11570  1.0000
  H   H7        1.0  0.64590  0.56430  0.88430  1.0000
  H   H8        1.0  0.85410  0.93570  0.38430  1.0000
  H   H9        1.0  0.56890  0.43100  0.37650  1.0000
  H   H10       1.0  0.93110  0.06900  0.87650  1.0000
  H   H11       1.0  0.43110  0.43100  0.12350  1.0000
  H   H12       1.0  0.06890  0.06900  0.62350  1.0000
  H   H13       1.0  0.43110  0.56900  0.62350  1.0000
  H   H14       1.0  0.06890  0.93100  0.12350  1.0000
  H   H15       1.0  0.56890  0.56900  0.87650  1.0000
  H   H16       1.0  0.93110  0.93100  0.37650  1.0000
  C   C17       1.0  0.60136  0.40292  0.49389  1.0000
  C   C18       1.0  0.89864  0.09708  0.99389  1.0000
  C   C19       1.0  0.39864  0.40292  0.00611  1.0000
  C   C20       1.0  0.10136  0.09708  0.50611  1.0000
  C   C21       1.0  0.39864  0.59708  0.50611  1.0000
  C   C22       1.0  0.10136  0.90292  0.00611  1.0000
  C   C23       1.0  0.60136  0.59708  0.99389  1.0000
  C   C24       1.0  0.89864  0.90292  0.49389  1.0000
  C   C25       1.0  0.65454  0.34748  0.53200  1.0000
  C   C26       1.0  0.84546  0.15252  0.03200  1.0000
  C   C27       1.0  0.34546  0.34748  0.96800  1.0000
  C   C28       1.0  0.15454  0.15252  0.46800  1.0000
  C   C29       1.0  0.34546  0.65252  0.46800  1.0000
  C   C30       1.0  0.15454  0.84748  0.96800  1.0000
  C   C31       1.0  0.65454  0.65252  0.03200  1.0000
  C   C32       1.0  0.84546  0.84748  0.53200  1.0000
  H   H17       1.0  0.69670  0.37610  0.52570  1.0000
  H   H18       1.0  0.80330  0.12390  0.02570  1.0000
  H   H19       1.0  0.30330  0.37610  0.97430  1.0000
  H   H20       1.0  0.19670  0.12390  0.47430  1.0000
  H   H21       1.0  0.30330  0.62390  0.47430  1.0000
  H   H22       1.0  0.19670  0.87610  0.97430  1.0000
  H   H23       1.0  0.69670  0.62390  0.02570  1.0000
  H   H24       1.0  0.80330  0.87610  0.52570  1.0000
  H   H25       1.0  0.64590  0.34260  0.59170  1.0000
  H   H26       1.0  0.85410  0.15740  0.09170  1.0000
  H   H27       1.0  0.35410  0.34260  0.90830  1.0000
  H   H28       1.0  0.14590  0.15740  0.40830  1.0000
  H   H29       1.0  0.35410  0.65740  0.40830  1.0000
  H   H30       1.0  0.14590  0.84260  0.90830  1.0000
  H   H31       1.0  0.64590  0.65740  0.09170  1.0000
  H   H32       1.0  0.85410  0.84260  0.59170  1.0000
  C   C33       1.0  0.66136  0.25980  0.49649  1.0000
  C   C34       1.0  0.83864  0.24020  0.99649  1.0000
  C   C35       1.0  0.33864  0.25980  0.00351  1.0000
  C   C36       1.0  0.16136  0.24020  0.50351  1.0000
  C   C37       1.0  0.33864  0.74020  0.50351  1.0000
  C   C38       1.0  0.16136  0.75980  0.00351  1.0000
  C   C39       1.0  0.66136  0.74020  0.99649  1.0000
  C   C40       1.0  0.83864  0.75980  0.49649  1.0000
  C   C41       1.0  0.66434  0.26340  0.40196  1.0000
  C   C42       1.0  0.83566  0.23660  0.90196  1.0000
  C   C43       1.0  0.33566  0.26340  0.09804  1.0000
  C   C44       1.0  0.16434  0.23660  0.59804  1.0000
  C   C45       1.0  0.33566  0.73660  0.59804  1.0000
  C   C46       1.0  0.16434  0.76340  0.09804  1.0000
  C   C47       1.0  0.66434  0.73660  0.90196  1.0000
  C   C48       1.0  0.83566  0.76340  0.40196  1.0000
  H   H33       1.0  0.70760  0.28450  0.38610  1.0000
  H   H34       1.0  0.79240  0.21550  0.88610  1.0000
  H   H35       1.0  0.29240  0.28450  0.11390  1.0000
  H   H36       1.0  0.20760  0.21550  0.61390  1.0000
  H   H37       1.0  0.29240  0.71550  0.61390  1.0000
  H   H38       1.0  0.20760  0.78450  0.11390  1.0000
  H   H39       1.0  0.70760  0.71550  0.88610  1.0000
  H   H40       1.0  0.79240  0.78450  0.38610  1.0000
  H   H41       1.0  0.66080  0.20620  0.38080  1.0000
  H   H42       1.0  0.83920  0.29380  0.88080  1.0000
  H   H43       1.0  0.33920  0.20620  0.11920  1.0000
  H   H44       1.0  0.16080  0.29380  0.61920  1.0000
  H   H45       1.0  0.33920  0.79380  0.61920  1.0000
  H   H46       1.0  0.16080  0.70620  0.11920  1.0000
  H   H47       1.0  0.66080  0.79380  0.88080  1.0000
  H   H48       1.0  0.83920  0.70620  0.38080  1.0000
  C   C49       1.0  0.63463  0.33127  0.26938  1.0000
  C   C50       1.0  0.86537  0.16873  0.76938  1.0000
  C   C51       1.0  0.36537  0.33127  0.23062  1.0000
  C   C52       1.0  0.13463  0.16873  0.73062  1.0000
  C   C53       1.0  0.36537  0.66873  0.73062  1.0000
  C   C54       1.0  0.13463  0.83127  0.23062  1.0000
  C   C55       1.0  0.63463  0.66873  0.76938  1.0000
  C   C56       1.0  0.86537  0.83127  0.26938  1.0000
  C   C57       1.0  0.54743  0.27120  0.34910  1.0000
  C   C58       1.0  0.95257  0.22880  0.84910  1.0000
  C   C59       1.0  0.45257  0.27120  0.15090  1.0000
  C   C60       1.0  0.04743  0.22880  0.65090  1.0000
  C   C61       1.0  0.45257  0.72880  0.65090  1.0000
  C   C62       1.0  0.04743  0.77120  0.15090  1.0000
  C   C63       1.0  0.54743  0.72880  0.84910  1.0000
  C   C64       1.0  0.95257  0.77120  0.34910  1.0000
  H   H49       1.0  0.53190  0.25380  0.40340  1.0000
  H   H50       1.0  0.96810  0.24620  0.90340  1.0000
  H   H51       1.0  0.46810  0.25380  0.09660  1.0000
  H   H52       1.0  0.03190  0.24620  0.59660  1.0000
  H   H53       1.0  0.46810  0.74620  0.59660  1.0000
  H   H54       1.0  0.03190  0.75380  0.09660  1.0000
  H   H55       1.0  0.53190  0.74620  0.90340  1.0000
  H   H56       1.0  0.96810  0.75380  0.40340  1.0000
  H   H57       1.0  0.55300  0.22240  0.31390  1.0000
  H   H58       1.0  0.94700  0.27760  0.81390  1.0000
  H   H59       1.0  0.44700  0.22240  0.18610  1.0000
  H   H60       1.0  0.05300  0.27760  0.68610  1.0000
  H   H61       1.0  0.44700  0.77760  0.68610  1.0000
  H   H62       1.0  0.05300  0.72240  0.18610  1.0000
  H   H63       1.0  0.55300  0.77760  0.81390  1.0000
  H   H64       1.0  0.94700  0.72240  0.31390  1.0000
  H   H65       1.0  0.51580  0.30870  0.32400  1.0000
  H   H66       1.0  0.98420  0.19130  0.82400  1.0000
  H   H67       1.0  0.48420  0.30870  0.17600  1.0000
  H   H68       1.0  0.01580  0.19130  0.67600  1.0000
  H   H69       1.0  0.48420  0.69130  0.67600  1.0000
  H   H70       1.0  0.01580  0.80870  0.17600  1.0000
  H   H71       1.0  0.51580  0.69130  0.82400  1.0000
  H   H72       1.0  0.98420  0.80870  0.32400  1.0000
  C   C65       1.0  0.61863  0.48988  0.52582  1.0000
  C   C66       1.0  0.88137  0.01012  0.02582  1.0000
  C   C67       1.0  0.38137  0.48988  0.97418  1.0000
  C   C68       1.0  0.11863  0.01012  0.47418  1.0000
  C   C69       1.0  0.38137  0.51012  0.47418  1.0000
  C   C70       1.0  0.11863  0.98988  0.97418  1.0000
  C   C71       1.0  0.61863  0.51012  0.02582  1.0000
  C   C72       1.0  0.88137  0.98988  0.52582  1.0000
  C   C73       1.0  0.53246  0.38380  0.52490  1.0000
  C   C74       1.0  0.96754  0.11620  0.02490  1.0000
  C   C75       1.0  0.46754  0.38380  0.97510  1.0000
  C   C76       1.0  0.03246  0.11620  0.47510  1.0000
  C   C77       1.0  0.46754  0.61620  0.47510  1.0000
  C   C78       1.0  0.03246  0.88380  0.97510  1.0000
  C   C79       1.0  0.53246  0.61620  0.02490  1.0000
  C   C80       1.0  0.96754  0.88380  0.52490  1.0000
  H   H73       1.0  0.53160  0.38660  0.58510  1.0000
  H   H74       1.0  0.96840  0.11340  0.08510  1.0000
  H   H75       1.0  0.46840  0.38660  0.91490  1.0000
  H   H76       1.0  0.03160  0.11340  0.41490  1.0000
  H   H77       1.0  0.46840  0.61340  0.41490  1.0000
  H   H78       1.0  0.03160  0.88660  0.91490  1.0000
  H   H79       1.0  0.53160  0.61340  0.08510  1.0000
  H   H80       1.0  0.96840  0.88660  0.58510  1.0000
  H   H81       1.0  0.51980  0.32810  0.50700  1.0000
  H   H82       1.0  0.98020  0.17190  0.00700  1.0000
  H   H83       1.0  0.48020  0.32810  0.99300  1.0000
  H   H84       1.0  0.01980  0.17190  0.49300  1.0000
  H   H85       1.0  0.48020  0.67190  0.49300  1.0000
  H   H86       1.0  0.01980  0.82810  0.99300  1.0000
  H   H87       1.0  0.51980  0.67190  0.00700  1.0000
  H   H88       1.0  0.98020  0.82810  0.50700  1.0000
  H   H89       1.0  0.50200  0.42440  0.50220  1.0000
  H   H90       1.0  0.99800  0.07560  0.00220  1.0000
  H   H91       1.0  0.49800  0.42440  0.99780  1.0000
  H   H92       1.0  0.00200  0.07560  0.49780  1.0000
  H   H93       1.0  0.49800  0.57560  0.49780  1.0000
  H   H94       1.0  0.00200  0.92440  0.99780  1.0000
  H   H95       1.0  0.50200  0.57560  0.00220  1.0000
  H   H96       1.0  0.99800  0.92440  0.50220  1.0000
  C   C81       1.0  0.72516  0.22284  0.52895  1.0000
  C   C82       1.0  0.77484  0.27716  0.02895  1.0000
  C   C83       1.0  0.27484  0.22284  0.97105  1.0000
  C   C84       1.0  0.22516  0.27716  0.47105  1.0000
  C   C85       1.0  0.27484  0.77716  0.47105  1.0000
  C   C86       1.0  0.22516  0.72284  0.97105  1.0000
  C   C87       1.0  0.72516  0.77716  0.02895  1.0000
  C   C88       1.0  0.77484  0.72284  0.52895  1.0000
  C   C89       1.0  0.60973  0.19800  0.53060  1.0000
  C   C90       1.0  0.89027  0.30200  0.03060  1.0000
  C   C91       1.0  0.39027  0.19800  0.96940  1.0000
  C   C92       1.0  0.10973  0.30200  0.46940  1.0000
  C   C93       1.0  0.39027  0.80200  0.46940  1.0000
  C   C94       1.0  0.10973  0.69800  0.96940  1.0000
  C   C95       1.0  0.60973  0.80200  0.03060  1.0000
  C   C96       1.0  0.89027  0.69800  0.53060  1.0000
  H   H97       1.0  0.61690  0.14320  0.50650  1.0000
  H   H98       1.0  0.88310  0.35680  0.00650  1.0000
  H   H99       1.0  0.38310  0.14320  0.99350  1.0000
  H   H100      1.0  0.11690  0.35680  0.49350  1.0000
  H   H101      1.0  0.38310  0.85680  0.49350  1.0000
  H   H102      1.0  0.11690  0.64320  0.99350  1.0000
  H   H103      1.0  0.61690  0.85680  0.00650  1.0000
  H   H104      1.0  0.88310  0.64320  0.50650  1.0000
  H   H105      1.0  0.56620  0.21750  0.51610  1.0000
  H   H106      1.0  0.93380  0.28250  0.01610  1.0000
  H   H107      1.0  0.43380  0.21750  0.98390  1.0000
  H   H108      1.0  0.06620  0.28250  0.48390  1.0000
  H   H109      1.0  0.43380  0.78250  0.48390  1.0000
  H   H110      1.0  0.06620  0.71750  0.98390  1.0000
  H   H111      1.0  0.56620  0.78250  0.01610  1.0000
  H   H112      1.0  0.93380  0.71750  0.51610  1.0000
  H   H113      1.0  0.61360  0.19460  0.59060  1.0000
  H   H114      1.0  0.88640  0.30540  0.09060  1.0000
  H   H115      1.0  0.38640  0.19460  0.90940  1.0000
  H   H116      1.0  0.11360  0.30540  0.40940  1.0000
  H   H117      1.0  0.38640  0.80540  0.40940  1.0000
  H   H118      1.0  0.11360  0.69460  0.90940  1.0000
  H   H119      1.0  0.61360  0.80540  0.09060  1.0000
  H   H120      1.0  0.88640  0.69460  0.59060  1.0000
