data_image0
_chemical_formula_structural       Zn4P4O20C4H2C2H2C4H2C2H2C6H2C2H2C4H2C2H2C2
_chemical_formula_sum              "Zn4 P4 O20 C28 H16"
_cell_length_a       10.075
_cell_length_b       13.051
_cell_length_c       13.24
_cell_angle_alpha    70.79
_cell_angle_beta     68.85
_cell_angle_gamma    70.61

_space_group_name_H-M_alt    "P 1"
_space_group_IT_number       1

loop_
  _space_group_symop_operation_xyz
  'x, y, z'

loop_
  _atom_site_type_symbol
  _atom_site_label
  _atom_site_symmetry_multiplicity
  _atom_site_fract_x
  _atom_site_fract_y
  _atom_site_fract_z
  _atom_site_occupancy
  Zn  Zn1       1.0  0.43318  0.83363  0.55285  1.0000
  Zn  Zn2       1.0  0.56682  0.16637  0.44715  1.0000
  Zn  Zn3       1.0  0.83744  0.94549  0.66517  1.0000
  Zn  Zn4       1.0  0.16256  0.05451  0.33483  1.0000
  P   P1        1.0  0.12993  0.83589  0.52661  1.0000
  P   P2        1.0  0.87007  0.16411  0.47339  1.0000
  P   P3        1.0  0.50792  0.96900  0.66402  1.0000
  P   P4        1.0  0.49208  0.03100  0.33598  1.0000
  O   O1        1.0  0.22880  0.86730  0.56790  1.0000
  O   O2        1.0  0.77120  0.13270  0.43210  1.0000
  O   O3        1.0  0.98810  0.82200  0.61600  1.0000
  O   O4        1.0  0.01190  0.17800  0.38400  1.0000
  O   O5        1.0  0.10100  0.91670  0.42060  1.0000
  O   O6        1.0  0.89900  0.08330  0.57940  1.0000
  O   O7        1.0  0.44670  0.30530  0.48550  1.0000
  O   O8        1.0  0.55330  0.69470  0.51450  1.0000
  O   O9        1.0  0.50960  0.38770  0.30720  1.0000
  O   O10       1.0  0.49040  0.61230  0.69280  1.0000
  O   O11       1.0  0.67200  0.92880  0.63790  1.0000
  O   O12       1.0  0.32800  0.07120  0.36210  1.0000
  O   O13       1.0  0.44140  0.87440  0.67930  1.0000
  O   O14       1.0  0.55860  0.12560  0.32070  1.0000
  O   O15       1.0  0.45840  0.07130  0.57980  1.0000
  O   O16       1.0  0.54160  0.92870  0.42020  1.0000
  O   O17       1.0  0.20300  0.03760  0.18650  1.0000
  O   O18       1.0  0.79700  0.96240  0.81350  1.0000
  O   O19       1.0  0.26970  0.19800  0.10760  1.0000
  O   O20       1.0  0.73030  0.80200  0.89240  1.0000
  C   C1        1.0  0.21770  0.70350  0.49160  1.0000
  C   C2        1.0  0.78230  0.29650  0.50840  1.0000
  C   C3        1.0  0.21930  0.60580  0.57320  1.0000
  C   C4        1.0  0.78070  0.39420  0.42680  1.0000
  H   H1        1.0  0.17140  0.60770  0.64740  1.0000
  H   H2        1.0  0.82860  0.39230  0.35260  1.0000
  C   C5        1.0  0.29330  0.50320  0.54420  1.0000
  C   C6        1.0  0.70670  0.49680  0.45580  1.0000
  H   H3        1.0  0.29370  0.43700  0.59950  1.0000
  H   H4        1.0  0.70630  0.56300  0.40050  1.0000
  C   C7        1.0  0.36380  0.49970  0.43710  1.0000
  C   C8        1.0  0.63620  0.50030  0.56290  1.0000
  C   C9        1.0  0.36240  0.59710  0.35460  1.0000
  C   C10       1.0  0.63760  0.40290  0.64540  1.0000
  H   H5        1.0  0.41070  0.59460  0.28060  1.0000
  H   H6        1.0  0.58930  0.40540  0.71940  1.0000
  C   C11       1.0  0.28920  0.69840  0.38200  1.0000
  C   C12       1.0  0.71080  0.30160  0.61800  1.0000
  H   H7        1.0  0.28780  0.76400  0.32600  1.0000
  H   H8        1.0  0.71220  0.23600  0.67400  1.0000
  C   C13       1.0  0.44740  0.39040  0.40670  1.0000
  C   C14       1.0  0.55260  0.60960  0.59330  1.0000
  C   C15       1.0  0.43300  0.00940  0.79540  1.0000
  C   C16       1.0  0.56700  0.99060  0.20460  1.0000
  C   C17       1.0  0.37760  0.93840  0.89250  1.0000
  C   C18       1.0  0.62240  0.06160  0.10750  1.0000
  H   H9        1.0  0.38030  0.86670  0.89190  1.0000
  H   H10       1.0  0.61970  0.13330  0.10810  1.0000
  C   C19       1.0  0.31900  0.97100  0.98940  1.0000
  C   C20       1.0  0.68100  0.02900  0.01060  1.0000
  H   H11       1.0  0.27960  0.92180  0.05400  1.0000
  H   H12       1.0  0.72040  0.07820  0.94600  1.0000
  C   C21       1.0  0.31600  0.07530  0.99530  1.0000
  C   C22       1.0  0.68400  0.92470  0.00470  1.0000
  C   C23       1.0  0.37100  0.14770  0.89790  1.0000
  C   C24       1.0  0.62900  0.85230  0.10210  1.0000
  H   H13       1.0  0.36900  0.21900  0.89930  1.0000
  H   H14       1.0  0.63100  0.78100  0.10070  1.0000
  C   C25       1.0  0.42880  0.11570  0.79860  1.0000
  C   C26       1.0  0.57120  0.88430  0.20140  1.0000
  H   H15       1.0  0.46520  0.16550  0.73330  1.0000
  H   H16       1.0  0.53480  0.83450  0.26670  1.0000
  C   C27       1.0  0.25890  0.10820  0.10280  1.0000
  C   C28       1.0  0.74110  0.89180  0.89720  1.0000
