data_image0
_chemical_formula_structural       Zn18P18O90C36H18C18H18C36H18C18H18C18
_chemical_formula_sum              "Zn18 P18 O90 C126 H72"
_cell_length_a       14.018
_cell_length_b       14.018
_cell_length_c       31.122
_cell_angle_alpha    90
_cell_angle_beta     90
_cell_angle_gamma    120

_space_group_name_H-M_alt    "P 1"
_space_group_IT_number       1

loop_
  _space_group_symop_operation_xyz
  'x, y, z'

loop_
  _atom_site_type_symbol
  _atom_site_label
  _atom_site_symmetry_multiplicity
  _atom_site_fract_x
  _atom_site_fract_y
  _atom_site_fract_z
  _atom_site_occupancy
  Zn  Zn1       1.0  0.90177  0.57485  0.13506  1.0000
  Zn  Zn2       1.0  0.42515  0.32692  0.13506  1.0000
  Zn  Zn3       1.0  0.67308  0.09823  0.13506  1.0000
  Zn  Zn4       1.0  0.56844  0.90818  0.46839  1.0000
  Zn  Zn5       1.0  0.09182  0.66025  0.46839  1.0000
  Zn  Zn6       1.0  0.33975  0.43156  0.46839  1.0000
  Zn  Zn7       1.0  0.23510  0.24152  0.80173  1.0000
  Zn  Zn8       1.0  0.75848  0.99359  0.80173  1.0000
  Zn  Zn9       1.0  0.00641  0.76490  0.80173  1.0000
  Zn  Zn10      1.0  0.09823  0.42515  0.86494  1.0000
  Zn  Zn11      1.0  0.57485  0.67308  0.86494  1.0000
  Zn  Zn12      1.0  0.32692  0.90177  0.86494  1.0000
  Zn  Zn13      1.0  0.43156  0.09182  0.53161  1.0000
  Zn  Zn14      1.0  0.90818  0.33975  0.53161  1.0000
  Zn  Zn15      1.0  0.66025  0.56844  0.53161  1.0000
  Zn  Zn16      1.0  0.76490  0.75848  0.19827  1.0000
  Zn  Zn17      1.0  0.24152  0.00641  0.19827  1.0000
  Zn  Zn18      1.0  0.99359  0.23510  0.19827  1.0000
  P   P1        1.0  0.66320  0.55620  0.13028  1.0000
  P   P2        1.0  0.44380  0.10700  0.13028  1.0000
  P   P3        1.0  0.89300  0.33680  0.13028  1.0000
  P   P4        1.0  0.32987  0.88953  0.46361  1.0000
  P   P5        1.0  0.11047  0.44033  0.46361  1.0000
  P   P6        1.0  0.55967  0.67013  0.46361  1.0000
  P   P7        1.0  0.99653  0.22287  0.79695  1.0000
  P   P8        1.0  0.77713  0.77367  0.79695  1.0000
  P   P9        1.0  0.22633  0.00347  0.79695  1.0000
  P   P10       1.0  0.33680  0.44380  0.86972  1.0000
  P   P11       1.0  0.55620  0.89300  0.86972  1.0000
  P   P12       1.0  0.10700  0.66320  0.86972  1.0000
  P   P13       1.0  0.67013  0.11047  0.53639  1.0000
  P   P14       1.0  0.88953  0.55967  0.53639  1.0000
  P   P15       1.0  0.44033  0.32987  0.53639  1.0000
  P   P16       1.0  0.00347  0.77713  0.20305  1.0000
  P   P17       1.0  0.22287  0.22633  0.20305  1.0000
  P   P18       1.0  0.77367  0.99653  0.20305  1.0000
  O   O1        1.0  0.74520  0.51820  0.14000  1.0000
  O   O2        1.0  0.48180  0.22700  0.14000  1.0000
  O   O3        1.0  0.77300  0.25480  0.14000  1.0000
  O   O4        1.0  0.41187  0.85153  0.47333  1.0000
  O   O5        1.0  0.14847  0.56033  0.47333  1.0000
  O   O6        1.0  0.43967  0.58813  0.47333  1.0000
  O   O7        1.0  0.07853  0.18487  0.80667  1.0000
  O   O8        1.0  0.81513  0.89367  0.80667  1.0000
  O   O9        1.0  0.10633  0.92147  0.80667  1.0000
  O   O10       1.0  0.25480  0.48180  0.86000  1.0000
  O   O11       1.0  0.51820  0.77300  0.86000  1.0000
  O   O12       1.0  0.22700  0.74520  0.86000  1.0000
  O   O13       1.0  0.58813  0.14847  0.52667  1.0000
  O   O14       1.0  0.85153  0.43967  0.52667  1.0000
  O   O15       1.0  0.56033  0.41187  0.52667  1.0000
  O   O16       1.0  0.92147  0.81513  0.19333  1.0000
  O   O17       1.0  0.18487  0.10633  0.19333  1.0000
  O   O18       1.0  0.89367  0.07853  0.19333  1.0000
  O   O19       1.0  0.55090  0.47390  0.14670  1.0000
  O   O20       1.0  0.52610  0.07700  0.14670  1.0000
  O   O21       1.0  0.92300  0.44910  0.14670  1.0000
  O   O22       1.0  0.21757  0.80723  0.48003  1.0000
  O   O23       1.0  0.19277  0.41033  0.48003  1.0000
  O   O24       1.0  0.58967  0.78243  0.48003  1.0000
  O   O25       1.0  0.88423  0.14057  0.81337  1.0000
  O   O26       1.0  0.85943  0.74367  0.81337  1.0000
  O   O27       1.0  0.25633  0.11577  0.81337  1.0000
  O   O28       1.0  0.44910  0.52610  0.85330  1.0000
  O   O29       1.0  0.47390  0.92300  0.85330  1.0000
  O   O30       1.0  0.07700  0.55090  0.85330  1.0000
  O   O31       1.0  0.78243  0.19277  0.51997  1.0000
  O   O32       1.0  0.80723  0.58967  0.51997  1.0000
  O   O33       1.0  0.41033  0.21757  0.51997  1.0000
  O   O34       1.0  0.11577  0.85943  0.18663  1.0000
  O   O35       1.0  0.14057  0.25633  0.18663  1.0000
  O   O36       1.0  0.74367  0.88423  0.18663  1.0000
  O   O37       1.0  0.69720  0.66860  0.14840  1.0000
  O   O38       1.0  0.33140  0.02860  0.14840  1.0000
  O   O39       1.0  0.97140  0.30280  0.14840  1.0000
  O   O40       1.0  0.36387  0.00193  0.48173  1.0000
  O   O41       1.0  0.99807  0.36193  0.48173  1.0000
  O   O42       1.0  0.63807  0.63613  0.48173  1.0000
  O   O43       1.0  0.03053  0.33527  0.81507  1.0000
  O   O44       1.0  0.66473  0.69527  0.81507  1.0000
  O   O45       1.0  0.30473  0.96947  0.81507  1.0000
  O   O46       1.0  0.30280  0.33140  0.85160  1.0000
  O   O47       1.0  0.66860  0.97140  0.85160  1.0000
  O   O48       1.0  0.02860  0.69720  0.85160  1.0000
  O   O49       1.0  0.63613  0.99807  0.51827  1.0000
  O   O50       1.0  0.00193  0.63807  0.51827  1.0000
  O   O51       1.0  0.36193  0.36387  0.51827  1.0000
  O   O52       1.0  0.96947  0.66473  0.18493  1.0000
  O   O53       1.0  0.33527  0.30473  0.18493  1.0000
  O   O54       1.0  0.69527  0.03053  0.18493  1.0000
  O   O55       1.0  0.63020  0.68000  0.92270  1.0000
  O   O56       1.0  0.32000  0.95020  0.92270  1.0000
  O   O57       1.0  0.04980  0.36980  0.92270  1.0000
  O   O58       1.0  0.29687  0.01333  0.25603  1.0000
  O   O59       1.0  0.98667  0.28353  0.25603  1.0000
  O   O60       1.0  0.71647  0.70313  0.25603  1.0000
  O   O61       1.0  0.96353  0.34667  0.58937  1.0000
  O   O62       1.0  0.65333  0.61687  0.58937  1.0000
  O   O63       1.0  0.38313  0.03647  0.58937  1.0000
  O   O64       1.0  0.36980  0.32000  0.07730  1.0000
  O   O65       1.0  0.68000  0.04980  0.07730  1.0000
  O   O66       1.0  0.95020  0.63020  0.07730  1.0000
  O   O67       1.0  0.70313  0.98667  0.74397  1.0000
  O   O68       1.0  0.01333  0.71647  0.74397  1.0000
  O   O69       1.0  0.28353  0.29687  0.74397  1.0000
  O   O70       1.0  0.03647  0.65333  0.41063  1.0000
  O   O71       1.0  0.34667  0.38313  0.41063  1.0000
  O   O72       1.0  0.61687  0.96353  0.41063  1.0000
  O   O73       1.0  0.65900  0.54150  0.91240  1.0000
  O   O74       1.0  0.45850  0.11750  0.91240  1.0000
  O   O75       1.0  0.88250  0.34100  0.91240  1.0000
  O   O76       1.0  0.32567  0.87483  0.24573  1.0000
  O   O77       1.0  0.12517  0.45083  0.24573  1.0000
  O   O78       1.0  0.54917  0.67433  0.24573  1.0000
  O   O79       1.0  0.99233  0.20817  0.57907  1.0000
  O   O80       1.0  0.79183  0.78417  0.57907  1.0000
  O   O81       1.0  0.21583  0.00767  0.57907  1.0000
  O   O82       1.0  0.34100  0.45850  0.08760  1.0000
  O   O83       1.0  0.54150  0.88250  0.08760  1.0000
  O   O84       1.0  0.11750  0.65900  0.08760  1.0000
  O   O85       1.0  0.67433  0.12517  0.75427  1.0000
  O   O86       1.0  0.87483  0.54917  0.75427  1.0000
  O   O87       1.0  0.45083  0.32567  0.75427  1.0000
  O   O88       1.0  0.00767  0.79183  0.42093  1.0000
  O   O89       1.0  0.20817  0.21583  0.42093  1.0000
  O   O90       1.0  0.78417  0.99233  0.42093  1.0000
  C   C1        1.0  0.65670  0.56860  0.07260  1.0000
  C   C2        1.0  0.43140  0.08810  0.07260  1.0000
  C   C3        1.0  0.91190  0.34330  0.07260  1.0000
  C   C4        1.0  0.32337  0.90193  0.40593  1.0000
  C   C5        1.0  0.09807  0.42143  0.40593  1.0000
  C   C6        1.0  0.57857  0.67663  0.40593  1.0000
  C   C7        1.0  0.99003  0.23527  0.73927  1.0000
  C   C8        1.0  0.76473  0.75477  0.73927  1.0000
  C   C9        1.0  0.24523  0.00997  0.73927  1.0000
  C   C10       1.0  0.34330  0.43140  0.92740  1.0000
  C   C11       1.0  0.56860  0.91190  0.92740  1.0000
  C   C12       1.0  0.08810  0.65670  0.92740  1.0000
  C   C13       1.0  0.67663  0.09807  0.59407  1.0000
  C   C14       1.0  0.90193  0.57857  0.59407  1.0000
  C   C15       1.0  0.42143  0.32337  0.59407  1.0000
  C   C16       1.0  0.00997  0.76473  0.26073  1.0000
  C   C17       1.0  0.23527  0.24523  0.26073  1.0000
  C   C18       1.0  0.75477  0.99003  0.26073  1.0000
  C   C19       1.0  0.63070  0.64330  0.05540  1.0000
  C   C20       1.0  0.35670  0.98740  0.05540  1.0000
  C   C21       1.0  0.01260  0.36930  0.05540  1.0000
  C   C22       1.0  0.29737  0.97663  0.38873  1.0000
  C   C23       1.0  0.02337  0.32073  0.38873  1.0000
  C   C24       1.0  0.67927  0.70263  0.38873  1.0000
  C   C25       1.0  0.96403  0.30997  0.72207  1.0000
  C   C26       1.0  0.69003  0.65407  0.72207  1.0000
  C   C27       1.0  0.34593  0.03597  0.72207  1.0000
  C   C28       1.0  0.36930  0.35670  0.94460  1.0000
  C   C29       1.0  0.64330  0.01260  0.94460  1.0000
  C   C30       1.0  0.98740  0.63070  0.94460  1.0000
  C   C31       1.0  0.70263  0.02337  0.61127  1.0000
  C   C32       1.0  0.97663  0.67927  0.61127  1.0000
  C   C33       1.0  0.32073  0.29737  0.61127  1.0000
  C   C34       1.0  0.03597  0.69003  0.27793  1.0000
  C   C35       1.0  0.30997  0.34593  0.27793  1.0000
  C   C36       1.0  0.65407  0.96403  0.27793  1.0000
  H   H1        1.0  0.61490  0.68640  0.07350  1.0000
  H   H2        1.0  0.31360  0.92850  0.07350  1.0000
  H   H3        1.0  0.07150  0.38510  0.07350  1.0000
  H   H4        1.0  0.28157  0.01973  0.40683  1.0000
  H   H5        1.0  0.98027  0.26183  0.40683  1.0000
  H   H6        1.0  0.73817  0.71843  0.40683  1.0000
  H   H7        1.0  0.94823  0.35307  0.74017  1.0000
  H   H8        1.0  0.64693  0.59517  0.74017  1.0000
  H   H9        1.0  0.40483  0.05177  0.74017  1.0000
  H   H10       1.0  0.38510  0.31360  0.92650  1.0000
  H   H11       1.0  0.68640  0.07150  0.92650  1.0000
  H   H12       1.0  0.92850  0.61490  0.92650  1.0000
  H   H13       1.0  0.71843  0.98027  0.59317  1.0000
  H   H14       1.0  0.01973  0.73817  0.59317  1.0000
  H   H15       1.0  0.26183  0.28157  0.59317  1.0000
  H   H16       1.0  0.05177  0.64693  0.25983  1.0000
  H   H17       1.0  0.35307  0.40483  0.25983  1.0000
  H   H18       1.0  0.59517  0.94823  0.25983  1.0000
  C   C37       1.0  0.62800  0.65440  0.01080  1.0000
  C   C38       1.0  0.34560  0.97360  0.01080  1.0000
  C   C39       1.0  0.02640  0.37200  0.01080  1.0000
  C   C40       1.0  0.29467  0.98773  0.34413  1.0000
  C   C41       1.0  0.01227  0.30693  0.34413  1.0000
  C   C42       1.0  0.69307  0.70533  0.34413  1.0000
  C   C43       1.0  0.96133  0.32107  0.67747  1.0000
  C   C44       1.0  0.67893  0.64027  0.67747  1.0000
  C   C45       1.0  0.35973  0.03867  0.67747  1.0000
  C   C46       1.0  0.37200  0.34560  0.98920  1.0000
  C   C47       1.0  0.65440  0.02640  0.98920  1.0000
  C   C48       1.0  0.97360  0.62800  0.98920  1.0000
  C   C49       1.0  0.70533  0.01227  0.65587  1.0000
  C   C50       1.0  0.98773  0.69307  0.65587  1.0000
  C   C51       1.0  0.30693  0.29467  0.65587  1.0000
  C   C52       1.0  0.03867  0.67893  0.32253  1.0000
  C   C53       1.0  0.32107  0.35973  0.32253  1.0000
  C   C54       1.0  0.64027  0.96133  0.32253  1.0000
  H   H19       1.0  0.61040  0.70480  0.99930  1.0000
  H   H20       1.0  0.29520  0.90560  0.99930  1.0000
  H   H21       1.0  0.09440  0.38960  0.99930  1.0000
  H   H22       1.0  0.27707  0.03813  0.33263  1.0000
  H   H23       1.0  0.96187  0.23893  0.33263  1.0000
  H   H24       1.0  0.76107  0.72293  0.33263  1.0000
  H   H25       1.0  0.94373  0.37147  0.66597  1.0000
  H   H26       1.0  0.62853  0.57227  0.66597  1.0000
  H   H27       1.0  0.42773  0.05627  0.66597  1.0000
  H   H28       1.0  0.38960  0.29520  0.00070  1.0000
  H   H29       1.0  0.70480  0.09440  0.00070  1.0000
  H   H30       1.0  0.90560  0.61040  0.00070  1.0000
  H   H31       1.0  0.72293  0.96187  0.66737  1.0000
  H   H32       1.0  0.03813  0.76107  0.66737  1.0000
  H   H33       1.0  0.23893  0.27707  0.66737  1.0000
  H   H34       1.0  0.05627  0.62853  0.33403  1.0000
  H   H35       1.0  0.37147  0.42773  0.33403  1.0000
  H   H36       1.0  0.57227  0.94373  0.33403  1.0000
  C   C55       1.0  0.65140  0.59110  0.98420  1.0000
  C   C56       1.0  0.40890  0.06030  0.98420  1.0000
  C   C57       1.0  0.93970  0.34860  0.98420  1.0000
  C   C58       1.0  0.31807  0.92443  0.31753  1.0000
  C   C59       1.0  0.07557  0.39363  0.31753  1.0000
  C   C60       1.0  0.60637  0.68193  0.31753  1.0000
  C   C61       1.0  0.98473  0.25777  0.65087  1.0000
  C   C62       1.0  0.74223  0.72697  0.65087  1.0000
  C   C63       1.0  0.27303  0.01527  0.65087  1.0000
  C   C64       1.0  0.34860  0.40890  0.01580  1.0000
  C   C65       1.0  0.59110  0.93970  0.01580  1.0000
  C   C66       1.0  0.06030  0.65140  0.01580  1.0000
  C   C67       1.0  0.68193  0.07557  0.68247  1.0000
  C   C68       1.0  0.92443  0.60637  0.68247  1.0000
  C   C69       1.0  0.39363  0.31807  0.68247  1.0000
  C   C70       1.0  0.01527  0.74223  0.34913  1.0000
  C   C71       1.0  0.25777  0.27303  0.34913  1.0000
  C   C72       1.0  0.72697  0.98473  0.34913  1.0000
  C   C73       1.0  0.67310  0.51560  0.00100  1.0000
  C   C74       1.0  0.48440  0.15750  0.00100  1.0000
  C   C75       1.0  0.84250  0.32690  0.00100  1.0000
  C   C76       1.0  0.33977  0.84893  0.33433  1.0000
  C   C77       1.0  0.15107  0.49083  0.33433  1.0000
  C   C78       1.0  0.50917  0.66023  0.33433  1.0000
  C   C79       1.0  0.00643  0.18227  0.66767  1.0000
  C   C80       1.0  0.81773  0.82417  0.66767  1.0000
  C   C81       1.0  0.17583  0.99357  0.66767  1.0000
  C   C82       1.0  0.32690  0.48440  0.99900  1.0000
  C   C83       1.0  0.51560  0.84250  0.99900  1.0000
  C   C84       1.0  0.15750  0.67310  0.99900  1.0000
  C   C85       1.0  0.66023  0.15107  0.66567  1.0000
  C   C86       1.0  0.84893  0.50917  0.66567  1.0000
  C   C87       1.0  0.49083  0.33977  0.66567  1.0000
  C   C88       1.0  0.99357  0.81773  0.33233  1.0000
  C   C89       1.0  0.18227  0.17583  0.33233  1.0000
  C   C90       1.0  0.82417  0.00643  0.33233  1.0000
  H   H37       1.0  0.68540  0.47030  0.98270  1.0000
  H   H38       1.0  0.52970  0.21510  0.98270  1.0000
  H   H39       1.0  0.78490  0.31460  0.98270  1.0000
  H   H40       1.0  0.35207  0.80363  0.31603  1.0000
  H   H41       1.0  0.19637  0.54843  0.31603  1.0000
  H   H42       1.0  0.45157  0.64793  0.31603  1.0000
  H   H43       1.0  0.01873  0.13697  0.64937  1.0000
  H   H44       1.0  0.86303  0.88177  0.64937  1.0000
  H   H45       1.0  0.11823  0.98127  0.64937  1.0000
  H   H46       1.0  0.31460  0.52970  0.01730  1.0000
  H   H47       1.0  0.47030  0.78490  0.01730  1.0000
  H   H48       1.0  0.21510  0.68540  0.01730  1.0000
  H   H49       1.0  0.64793  0.19637  0.68397  1.0000
  H   H50       1.0  0.80363  0.45157  0.68397  1.0000
  H   H51       1.0  0.54843  0.35207  0.68397  1.0000
  H   H52       1.0  0.98127  0.86303  0.35063  1.0000
  H   H53       1.0  0.13697  0.11823  0.35063  1.0000
  H   H54       1.0  0.88177  0.01873  0.35063  1.0000
  C   C91       1.0  0.67710  0.50420  0.04530  1.0000
  C   C92       1.0  0.49580  0.17290  0.04530  1.0000
  C   C93       1.0  0.82710  0.32290  0.04530  1.0000
  C   C94       1.0  0.34377  0.83753  0.37863  1.0000
  C   C95       1.0  0.16247  0.50623  0.37863  1.0000
  C   C96       1.0  0.49377  0.65623  0.37863  1.0000
  C   C97       1.0  0.01043  0.17087  0.71197  1.0000
  C   C98       1.0  0.82913  0.83957  0.71197  1.0000
  C   C99       1.0  0.16043  0.98957  0.71197  1.0000
  C   C100      1.0  0.32290  0.49580  0.95470  1.0000
  C   C101      1.0  0.50420  0.82710  0.95470  1.0000
  C   C102      1.0  0.17290  0.67710  0.95470  1.0000
  C   C103      1.0  0.65623  0.16247  0.62137  1.0000
  C   C104      1.0  0.83753  0.49377  0.62137  1.0000
  C   C105      1.0  0.50623  0.34377  0.62137  1.0000
  C   C106      1.0  0.98957  0.82913  0.28803  1.0000
  C   C107      1.0  0.17087  0.16043  0.28803  1.0000
  C   C108      1.0  0.83957  0.01043  0.28803  1.0000
  H   H55       1.0  0.69370  0.45270  0.05650  1.0000
  H   H56       1.0  0.54730  0.24100  0.05650  1.0000
  H   H57       1.0  0.75900  0.30630  0.05650  1.0000
  H   H58       1.0  0.36037  0.78603  0.38983  1.0000
  H   H59       1.0  0.21397  0.57433  0.38983  1.0000
  H   H60       1.0  0.42567  0.63963  0.38983  1.0000
  H   H61       1.0  0.02703  0.11937  0.72317  1.0000
  H   H62       1.0  0.88063  0.90767  0.72317  1.0000
  H   H63       1.0  0.09233  0.97297  0.72317  1.0000
  H   H64       1.0  0.30630  0.54730  0.94350  1.0000
  H   H65       1.0  0.45270  0.75900  0.94350  1.0000
  H   H66       1.0  0.24100  0.69370  0.94350  1.0000
  H   H67       1.0  0.63963  0.21397  0.61017  1.0000
  H   H68       1.0  0.78603  0.42567  0.61017  1.0000
  H   H69       1.0  0.57433  0.36037  0.61017  1.0000
  H   H70       1.0  0.97297  0.88063  0.27683  1.0000
  H   H71       1.0  0.11937  0.09233  0.27683  1.0000
  H   H72       1.0  0.90767  0.02703  0.27683  1.0000
  C   C109      1.0  0.64790  0.60530  0.93560  1.0000
  C   C110      1.0  0.39470  0.04260  0.93560  1.0000
  C   C111      1.0  0.95740  0.35210  0.93560  1.0000
  C   C112      1.0  0.31457  0.93863  0.26893  1.0000
  C   C113      1.0  0.06137  0.37593  0.26893  1.0000
  C   C114      1.0  0.62407  0.68543  0.26893  1.0000
  C   C115      1.0  0.98123  0.27197  0.60227  1.0000
  C   C116      1.0  0.72803  0.70927  0.60227  1.0000
  C   C117      1.0  0.29073  0.01877  0.60227  1.0000
  C   C118      1.0  0.35210  0.39470  0.06440  1.0000
  C   C119      1.0  0.60530  0.95740  0.06440  1.0000
  C   C120      1.0  0.04260  0.64790  0.06440  1.0000
  C   C121      1.0  0.68543  0.06137  0.73107  1.0000
  C   C122      1.0  0.93863  0.62407  0.73107  1.0000
  C   C123      1.0  0.37593  0.31457  0.73107  1.0000
  C   C124      1.0  0.01877  0.72803  0.39773  1.0000
  C   C125      1.0  0.27197  0.29073  0.39773  1.0000
  C   C126      1.0  0.70927  0.98123  0.39773  1.0000
