data_image0
_chemical_formula_structural       In4O24C8H4C12H4C8H4C4H4C12H4O4C4H4C8H4C4H4C16H4C4H4C8H4C4H4C8H4C4H4C4H4O4C4H4
_chemical_formula_sum              "In4 O32 C112 H64"
_cell_length_a       14.0612
_cell_length_b       16.1146
_cell_length_c       15.5087
_cell_angle_alpha    90
_cell_angle_beta     103.837
_cell_angle_gamma    90

_space_group_name_H-M_alt    "P 1"
_space_group_IT_number       1

loop_
  _space_group_symop_operation_xyz
  'x, y, z'

loop_
  _atom_site_type_symbol
  _atom_site_label
  _atom_site_symmetry_multiplicity
  _atom_site_fract_x
  _atom_site_fract_y
  _atom_site_fract_z
  _atom_site_occupancy
  In  In1       1.0  0.76118  0.36016  0.65297  1.0000
  In  In2       1.0  0.73882  0.86016  0.84703  1.0000
  In  In3       1.0  0.23882  0.63984  0.34703  1.0000
  In  In4       1.0  0.26118  0.13984  0.15297  1.0000
  O   O1        1.0  0.84327  0.37959  0.54570  1.0000
  O   O2        1.0  0.65673  0.87959  0.95430  1.0000
  O   O3        1.0  0.15673  0.62041  0.45430  1.0000
  O   O4        1.0  0.34327  0.12041  0.04570  1.0000
  O   O5        1.0  0.69578  0.43097  0.52280  1.0000
  O   O6        1.0  0.80422  0.93097  0.97720  1.0000
  O   O7        1.0  0.30422  0.56903  0.47720  1.0000
  O   O8        1.0  0.19578  0.06903  0.02280  1.0000
  O   O9        1.0  0.83553  0.23308  0.66232  1.0000
  O   O10       1.0  0.66447  0.73308  0.83768  1.0000
  O   O11       1.0  0.16447  0.76692  0.33768  1.0000
  O   O12       1.0  0.33553  0.26692  0.16232  1.0000
  O   O13       1.0  0.38000  0.60744  0.32438  1.0000
  O   O14       1.0  0.12000  0.10744  0.17562  1.0000
  O   O15       1.0  0.62000  0.39256  0.67562  1.0000
  O   O16       1.0  0.88000  0.89256  0.82438  1.0000
  O   O17       1.0  0.69108  0.24935  0.57185  1.0000
  O   O18       1.0  0.80892  0.74935  0.92815  1.0000
  O   O19       1.0  0.30892  0.75065  0.42815  1.0000
  O   O20       1.0  0.19108  0.25065  0.07185  1.0000
  O   O21       1.0  0.38922  0.11134  0.26254  1.0000
  O   O22       1.0  0.11078  0.61134  0.23746  1.0000
  O   O23       1.0  0.61078  0.88866  0.73746  1.0000
  O   O24       1.0  0.88922  0.38866  0.76254  1.0000
  C   C1        1.0  0.46730  0.64933  0.21877  1.0000
  C   C2        1.0  0.03270  0.14933  0.28123  1.0000
  C   C3        1.0  0.53270  0.35067  0.78123  1.0000
  C   C4        1.0  0.96730  0.85067  0.71877  1.0000
  C   C5        1.0  0.58610  0.87556  0.42280  1.0000
  C   C6        1.0  0.91390  0.37556  0.07720  1.0000
  C   C7        1.0  0.41390  0.12444  0.57720  1.0000
  C   C8        1.0  0.08610  0.62444  0.92280  1.0000
  H   H1        1.0  0.63380  0.83990  0.45800  1.0000
  H   H2        1.0  0.86620  0.33990  0.04200  1.0000
  H   H3        1.0  0.36620  0.16010  0.54200  1.0000
  H   H4        1.0  0.13380  0.66010  0.95800  1.0000
  C   C9        1.0  0.37560  0.03380  0.25804  1.0000
  C   C10       1.0  0.12440  0.53380  0.24196  1.0000
  C   C11       1.0  0.62440  0.96620  0.74196  1.0000
  C   C12       1.0  0.87560  0.46620  0.75804  1.0000
  C   C13       1.0  0.37870  0.65349  0.25639  1.0000
  C   C14       1.0  0.12130  0.15349  0.24361  1.0000
  C   C15       1.0  0.62130  0.34651  0.74361  1.0000
  C   C16       1.0  0.87870  0.84651  0.75639  1.0000
  C   C17       1.0  0.68640  0.08072  0.51973  1.0000
  C   C18       1.0  0.81360  0.58072  0.98027  1.0000
  C   C19       1.0  0.31360  0.91928  0.48027  1.0000
  C   C20       1.0  0.18640  0.41928  0.01973  1.0000
  H   H5        1.0  0.62640  0.11050  0.50760  1.0000
  H   H6        1.0  0.87360  0.61050  0.99240  1.0000
  H   H7        1.0  0.37360  0.88950  0.49240  1.0000
  H   H8        1.0  0.12640  0.38950  0.00760  1.0000
  C   C21       1.0  0.76430  0.20421  0.60316  1.0000
  C   C22       1.0  0.73570  0.70421  0.89684  1.0000
  C   C23       1.0  0.23570  0.79579  0.39684  1.0000
  C   C24       1.0  0.26430  0.29579  0.10316  1.0000
  C   C25       1.0  0.63440  0.63361  0.15370  1.0000
  C   C26       1.0  0.86560  0.13361  0.34630  1.0000
  C   C27       1.0  0.36560  0.36639  0.84630  1.0000
  C   C28       1.0  0.13440  0.86639  0.65370  1.0000
  H   H9        1.0  0.69090  0.62900  0.13060  1.0000
  H   H10       1.0  0.80910  0.12900  0.36940  1.0000
  H   H11       1.0  0.30910  0.37100  0.86940  1.0000
  H   H12       1.0  0.19090  0.87100  0.63060  1.0000
  C   C29       1.0  0.50480  0.84151  0.36550  1.0000
  C   C30       1.0  0.99520  0.34151  0.13450  1.0000
  C   C31       1.0  0.49520  0.15849  0.63450  1.0000
  C   C32       1.0  0.00480  0.65849  0.86550  1.0000
  H   H13       1.0  0.49720  0.78290  0.36230  1.0000
  H   H14       1.0  0.00280  0.28290  0.13770  1.0000
  H   H15       1.0  0.50280  0.21710  0.63770  1.0000
  H   H16       1.0  0.99720  0.71710  0.86230  1.0000
  C   C33       1.0  0.70810  0.53183  0.27690  1.0000
  C   C34       1.0  0.79190  0.03183  0.22310  1.0000
  C   C35       1.0  0.29190  0.46817  0.72310  1.0000
  C   C36       1.0  0.20810  0.96817  0.77690  1.0000
  C   C37       1.0  0.68850  0.00006  0.48680  1.0000
  C   C38       1.0  0.81150  0.50006  0.01320  1.0000
  C   C39       1.0  0.31150  0.99994  0.51320  1.0000
  C   C40       1.0  0.18850  0.49994  0.98680  1.0000
  C   C41       1.0  0.70760  0.50292  0.36170  1.0000
  C   C42       1.0  0.79240  0.00292  0.13830  1.0000
  C   C43       1.0  0.29240  0.49708  0.63830  1.0000
  C   C44       1.0  0.20760  0.99708  0.86170  1.0000
  H   H17       1.0  0.65780  0.52160  0.38910  1.0000
  H   H18       1.0  0.84220  0.02160  0.11090  1.0000
  H   H19       1.0  0.34220  0.47840  0.61090  1.0000
  H   H20       1.0  0.15780  0.97840  0.88910  1.0000
  O   O25       1.0  0.30352  0.00474  0.20243  1.0000
  O   O26       1.0  0.19648  0.50474  0.29757  1.0000
  O   O27       1.0  0.69648  0.99526  0.79757  1.0000
  O   O28       1.0  0.80352  0.49526  0.70243  1.0000
  C   C45       1.0  0.54410  0.59802  0.26003  1.0000
  C   C46       1.0  0.95590  0.09802  0.23997  1.0000
  C   C47       1.0  0.45590  0.40198  0.73997  1.0000
  C   C48       1.0  0.04410  0.90198  0.76003  1.0000
  H   H21       1.0  0.53840  0.56790  0.31130  1.0000
  H   H22       1.0  0.96160  0.06790  0.18870  1.0000
  H   H23       1.0  0.46160  0.43210  0.68870  1.0000
  H   H24       1.0  0.03840  0.93210  0.81130  1.0000
  C   C49       1.0  0.44580  0.97768  0.31869  1.0000
  C   C50       1.0  0.05420  0.47768  0.18131  1.0000
  C   C51       1.0  0.55420  0.02232  0.68131  1.0000
  C   C52       1.0  0.94580  0.52232  0.81869  1.0000
  C   C53       1.0  0.43350  0.89209  0.31196  1.0000
  C   C54       1.0  0.06650  0.39209  0.18804  1.0000
  C   C55       1.0  0.56650  0.10791  0.68804  1.0000
  C   C56       1.0  0.93350  0.60791  0.81196  1.0000
  H   H25       1.0  0.37810  0.86860  0.27210  1.0000
  H   H26       1.0  0.12190  0.36860  0.22790  1.0000
  H   H27       1.0  0.62190  0.13140  0.72790  1.0000
  H   H28       1.0  0.87810  0.63140  0.77210  1.0000
  C   C57       1.0  0.52710  0.01205  0.37761  1.0000
  C   C58       1.0  0.97290  0.51205  0.12239  1.0000
  C   C59       1.0  0.47290  0.98795  0.62239  1.0000
  C   C60       1.0  0.02710  0.48795  0.87761  1.0000
  H   H29       1.0  0.53340  0.07070  0.38230  1.0000
  H   H30       1.0  0.96660  0.57070  0.11770  1.0000
  H   H31       1.0  0.46660  0.92930  0.61770  1.0000
  H   H32       1.0  0.03340  0.42930  0.88230  1.0000
  C   C61       1.0  0.77220  0.41747  0.49727  1.0000
  C   C62       1.0  0.72780  0.91747  0.00273  1.0000
  C   C63       1.0  0.22780  0.58253  0.50273  1.0000
  C   C64       1.0  0.27220  0.08253  0.99727  1.0000
  C   C65       1.0  0.77050  0.11772  0.56975  1.0000
  C   C66       1.0  0.72950  0.61772  0.93025  1.0000
  C   C67       1.0  0.22950  0.88228  0.43025  1.0000
  C   C68       1.0  0.27050  0.38228  0.06975  1.0000
  C   C69       1.0  0.77780  0.44751  0.40725  1.0000
  C   C70       1.0  0.72220  0.94751  0.09275  1.0000
  C   C71       1.0  0.22220  0.55249  0.59275  1.0000
  C   C72       1.0  0.27780  0.05249  0.90725  1.0000
  C   C73       1.0  0.85990  0.07649  0.58594  1.0000
  C   C74       1.0  0.64010  0.57649  0.91406  1.0000
  C   C75       1.0  0.14010  0.92351  0.41406  1.0000
  C   C76       1.0  0.35990  0.42351  0.08594  1.0000
  H   H33       1.0  0.91780  0.10290  0.61860  1.0000
  H   H34       1.0  0.58220  0.60290  0.88140  1.0000
  H   H35       1.0  0.08220  0.89710  0.38140  1.0000
  H   H36       1.0  0.41780  0.39710  0.11860  1.0000
  C   C77       1.0  0.47380  0.69417  0.14352  1.0000
  C   C78       1.0  0.02620  0.19417  0.35648  1.0000
  C   C79       1.0  0.52620  0.30583  0.85648  1.0000
  C   C80       1.0  0.97380  0.80583  0.64352  1.0000
  H   H37       1.0  0.42210  0.73000  0.11500  1.0000
  H   H38       1.0  0.07790  0.23000  0.38500  1.0000
  H   H39       1.0  0.57790  0.27000  0.88500  1.0000
  H   H40       1.0  0.92210  0.77000  0.61500  1.0000
  C   C81       1.0  0.59950  0.96169  0.43000  1.0000
  C   C82       1.0  0.90050  0.46169  0.07000  1.0000
  C   C83       1.0  0.40050  0.03831  0.57000  1.0000
  C   C84       1.0  0.09950  0.53831  0.93000  1.0000
  C   C85       1.0  0.85130  0.42090  0.36780  1.0000
  C   C86       1.0  0.64870  0.92090  0.13220  1.0000
  C   C87       1.0  0.14870  0.57910  0.63220  1.0000
  C   C88       1.0  0.35130  0.07910  0.86780  1.0000
  H   H41       1.0  0.89950  0.38290  0.39800  1.0000
  H   H42       1.0  0.60050  0.88290  0.10200  1.0000
  H   H43       1.0  0.10050  0.61710  0.60200  1.0000
  H   H44       1.0  0.39950  0.11710  0.89800  1.0000
  C   C89       1.0  0.78290  0.50500  0.24020  1.0000
  C   C90       1.0  0.71710  0.00500  0.25980  1.0000
  C   C91       1.0  0.21710  0.49500  0.75980  1.0000
  C   C92       1.0  0.28290  0.99500  0.74020  1.0000
  H   H45       1.0  0.78580  0.52450  0.18310  1.0000
  H   H46       1.0  0.71420  0.02450  0.31690  1.0000
  H   H47       1.0  0.21420  0.47550  0.81690  1.0000
  H   H48       1.0  0.28580  0.97550  0.68310  1.0000
  C   C93       1.0  0.62930  0.58866  0.22949  1.0000
  C   C94       1.0  0.87070  0.08866  0.27051  1.0000
  C   C95       1.0  0.37070  0.41134  0.77051  1.0000
  C   C96       1.0  0.12930  0.91134  0.72949  1.0000
  C   C97       1.0  0.77980  0.95836  0.50516  1.0000
  C   C98       1.0  0.72020  0.45836  0.99484  1.0000
  C   C99       1.0  0.22020  0.04164  0.49484  1.0000
  C   C100      1.0  0.27980  0.54164  0.00516  1.0000
  H   H49       1.0  0.78360  0.90350  0.48380  1.0000
  H   H50       1.0  0.71640  0.40350  0.01620  1.0000
  H   H51       1.0  0.21640  0.09650  0.51620  1.0000
  H   H52       1.0  0.28360  0.59650  0.98380  1.0000
  C   C101      1.0  0.86390  0.99690  0.55409  1.0000
  C   C102      1.0  0.63610  0.49690  0.94591  1.0000
  C   C103      1.0  0.13610  0.00310  0.44591  1.0000
  C   C104      1.0  0.36390  0.50310  0.05409  1.0000
  H   H53       1.0  0.92460  0.96820  0.56570  1.0000
  H   H54       1.0  0.57540  0.46820  0.93430  1.0000
  H   H55       1.0  0.07540  0.03180  0.43430  1.0000
  H   H56       1.0  0.42460  0.53180  0.06570  1.0000
  C   C105      1.0  0.55710  0.68560  0.11110  1.0000
  C   C106      1.0  0.94290  0.18560  0.38890  1.0000
  C   C107      1.0  0.44290  0.31440  0.88890  1.0000
  C   C108      1.0  0.05710  0.81440  0.61110  1.0000
  H   H57       1.0  0.56190  0.71520  0.05930  1.0000
  H   H58       1.0  0.93810  0.21520  0.44070  1.0000
  H   H59       1.0  0.43810  0.28480  0.94070  1.0000
  H   H60       1.0  0.06190  0.78480  0.55930  1.0000
  O   O29       1.0  0.30813  0.69913  0.22569  1.0000
  O   O30       1.0  0.19187  0.19913  0.27431  1.0000
  O   O31       1.0  0.69187  0.30087  0.77431  1.0000
  O   O32       1.0  0.80813  0.80087  0.72569  1.0000
  C   C109      1.0  0.85420  0.44990  0.28480  1.0000
  C   C110      1.0  0.64580  0.94990  0.21520  1.0000
  C   C111      1.0  0.14580  0.55010  0.71520  1.0000
  C   C112      1.0  0.35420  0.05010  0.78480  1.0000
  H   H61       1.0  0.90490  0.43230  0.25800  1.0000
  H   H62       1.0  0.59510  0.93230  0.24200  1.0000
  H   H63       1.0  0.09510  0.56770  0.74200  1.0000
  H   H64       1.0  0.40490  0.06770  0.75800  1.0000
