data_image0
_chemical_formula_structural       Zn4P8O32C24H16
_chemical_formula_sum              "Zn4 P8 O32 C24 H16"
_cell_length_a       8.8455
_cell_length_b       16.4492
_cell_length_c       11.2721
_cell_angle_alpha    90
_cell_angle_beta     97.338
_cell_angle_gamma    90

_space_group_name_H-M_alt    "P 1"
_space_group_IT_number       1

loop_
  _space_group_symop_operation_xyz
  'x, y, z'

loop_
  _atom_site_type_symbol
  _atom_site_label
  _atom_site_symmetry_multiplicity
  _atom_site_fract_x
  _atom_site_fract_y
  _atom_site_fract_z
  _atom_site_occupancy
  Zn  Zn1       1.0  0.73693  0.50748  0.99080  1.0000
  Zn  Zn2       1.0  0.76307  0.00748  0.50920  1.0000
  Zn  Zn3       1.0  0.26307  0.49252  0.00920  1.0000
  Zn  Zn4       1.0  0.23693  0.99252  0.49080  1.0000
  P   P1        1.0  0.53496  0.52463  0.21300  1.0000
  P   P2        1.0  0.96504  0.02463  0.28700  1.0000
  P   P3        1.0  0.46504  0.47537  0.78700  1.0000
  P   P4        1.0  0.03496  0.97537  0.71300  1.0000
  P   P5        1.0  0.52017  0.86078  0.50529  1.0000
  P   P6        1.0  0.97983  0.36078  0.99471  1.0000
  P   P7        1.0  0.47983  0.13922  0.49471  1.0000
  P   P8        1.0  0.02017  0.63922  0.00529  1.0000
  O   O1        1.0  0.61568  0.54669  0.10670  1.0000
  O   O2        1.0  0.88432  0.04669  0.39330  1.0000
  O   O3        1.0  0.38432  0.45331  0.89330  1.0000
  O   O4        1.0  0.11568  0.95331  0.60670  1.0000
  O   O5        1.0  0.61879  0.46378  0.29864  1.0000
  O   O6        1.0  0.88121  0.96378  0.20136  1.0000
  O   O7        1.0  0.38121  0.53622  0.70136  1.0000
  O   O8        1.0  0.11879  0.03622  0.79864  1.0000
  O   O9        1.0  0.37005  0.49818  0.17307  1.0000
  O   O10       1.0  0.12995  0.99818  0.32693  1.0000
  O   O11       1.0  0.62995  0.50182  0.82693  1.0000
  O   O12       1.0  0.87005  0.00182  0.67307  1.0000
  O   O13       1.0  0.66080  0.90494  0.47282  1.0000
  O   O14       1.0  0.83920  0.40494  0.02718  1.0000
  O   O15       1.0  0.33920  0.09506  0.52718  1.0000
  O   O16       1.0  0.16080  0.59506  0.97282  1.0000
  O   O17       1.0  0.37382  0.90513  0.45507  1.0000
  O   O18       1.0  0.12618  0.40513  0.04493  1.0000
  O   O19       1.0  0.62618  0.09487  0.54493  1.0000
  O   O20       1.0  0.87382  0.59487  0.95507  1.0000
  O   O21       1.0  0.53036  0.84096  0.63713  1.0000
  O   O22       1.0  0.96964  0.34096  0.86287  1.0000
  O   O23       1.0  0.46964  0.15904  0.36287  1.0000
  O   O24       1.0  0.03036  0.65904  0.13713  1.0000
  O   O25       1.0  0.31114  0.80860  0.26689  1.0000
  O   O26       1.0  0.18886  0.30860  0.23311  1.0000
  O   O27       1.0  0.68886  0.19140  0.73311  1.0000
  O   O28       1.0  0.81114  0.69140  0.76689  1.0000
  O   O29       1.0  0.71416  0.57148  0.45775  1.0000
  O   O30       1.0  0.78584  0.07148  0.04225  1.0000
  O   O31       1.0  0.28584  0.42852  0.54225  1.0000
  O   O32       1.0  0.21416  0.92852  0.95775  1.0000
  C   C1        1.0  0.52417  0.61778  0.29782  1.0000
  C   C2        1.0  0.97583  0.11778  0.20218  1.0000
  C   C3        1.0  0.47583  0.38222  0.70218  1.0000
  C   C4        1.0  0.02417  0.88222  0.79782  1.0000
  C   C5        1.0  0.42525  0.67996  0.25376  1.0000
  C   C6        1.0  0.07475  0.17996  0.24624  1.0000
  C   C7        1.0  0.57475  0.32004  0.74624  1.0000
  C   C8        1.0  0.92525  0.82004  0.75376  1.0000
  C   C9        1.0  0.41615  0.75253  0.31601  1.0000
  C   C10       1.0  0.08385  0.25253  0.18399  1.0000
  C   C11       1.0  0.58385  0.24747  0.68399  1.0000
  C   C12       1.0  0.91615  0.74747  0.81601  1.0000
  C   C13       1.0  0.51147  0.76540  0.42426  1.0000
  C   C14       1.0  0.98853  0.26540  0.07574  1.0000
  C   C15       1.0  0.48853  0.23460  0.57574  1.0000
  C   C16       1.0  0.01147  0.73460  0.92426  1.0000
  C   C17       1.0  0.60872  0.70290  0.46917  1.0000
  C   C18       1.0  0.89128  0.20290  0.03083  1.0000
  C   C19       1.0  0.39128  0.29710  0.53083  1.0000
  C   C20       1.0  0.10872  0.79710  0.96917  1.0000
  C   C21       1.0  0.61546  0.62969  0.40804  1.0000
  C   C22       1.0  0.88454  0.12969  0.09196  1.0000
  C   C23       1.0  0.38454  0.37031  0.59196  1.0000
  C   C24       1.0  0.11546  0.87031  0.90804  1.0000
  H   H1        1.0  0.36000  0.67310  0.17870  1.0000
  H   H2        1.0  0.14000  0.17310  0.32130  1.0000
  H   H3        1.0  0.64000  0.32690  0.82130  1.0000
  H   H4        1.0  0.86000  0.82690  0.67870  1.0000
  H   H5        1.0  0.67600  0.71010  0.54330  1.0000
  H   H6        1.0  0.82400  0.21010  0.95670  1.0000
  H   H7        1.0  0.32400  0.28990  0.45670  1.0000
  H   H8        1.0  0.17600  0.78990  0.04330  1.0000
  H   H9        1.0  0.30600  0.84270  0.31600  1.0000
  H   H10       1.0  0.19400  0.34270  0.18400  1.0000
  H   H11       1.0  0.69400  0.15730  0.68400  1.0000
  H   H12       1.0  0.80600  0.65730  0.81600  1.0000
  H   H13       1.0  0.69100  0.53080  0.41000  1.0000
  H   H14       1.0  0.80900  0.03080  0.09000  1.0000
  H   H15       1.0  0.30900  0.46920  0.59000  1.0000
  H   H16       1.0  0.19100  0.96920  0.91000  1.0000
