data_image0
_chemical_formula_structural       U4O32C6H2C2H2C2H2C2H2C2H4C4H4C8H2C2H2C2H2C2H2C2H4C4H4C8H2C2H2C2H2C2H2C2H4C4H4C2
_chemical_formula_sum              "U4 O32 C60 H48"
_cell_length_a       11.1842
_cell_length_b       9.7396
_cell_length_c       24.9076
_cell_angle_alpha    90
_cell_angle_beta     97.8714
_cell_angle_gamma    90

_space_group_name_H-M_alt    "P 1"
_space_group_IT_number       1

loop_
  _space_group_symop_operation_xyz
  'x, y, z'

loop_
  _atom_site_type_symbol
  _atom_site_label
  _atom_site_symmetry_multiplicity
  _atom_site_fract_x
  _atom_site_fract_y
  _atom_site_fract_z
  _atom_site_occupancy
  U   U1        1.0  0.35317  0.94159  0.91177  1.0000
  U   U2        1.0  0.64683  0.44159  0.08823  1.0000
  U   U3        1.0  0.68682  0.04687  0.60741  1.0000
  U   U4        1.0  0.31318  0.54687  0.39259  1.0000
  O   O1        1.0  0.22340  0.92460  0.86260  1.0000
  O   O2        1.0  0.77660  0.42460  0.13740  1.0000
  O   O3        1.0  0.48360  0.95960  0.95990  1.0000
  O   O4        1.0  0.51640  0.45960  0.04010  1.0000
  O   O5        1.0  0.53190  0.01850  0.61220  1.0000
  O   O6        1.0  0.46810  0.51850  0.38780  1.0000
  O   O7        1.0  0.84120  0.07590  0.60380  1.0000
  O   O8        1.0  0.15880  0.57590  0.39620  1.0000
  O   O9        1.0  0.47040  0.00790  0.83770  1.0000
  O   O10       1.0  0.52960  0.50790  0.16230  1.0000
  O   O11       1.0  0.46880  0.78810  0.85910  1.0000
  O   O12       1.0  0.53120  0.28810  0.14090  1.0000
  O   O13       1.0  0.73990  0.99260  0.70440  1.0000
  O   O14       1.0  0.26010  0.49260  0.29560  1.0000
  O   O15       1.0  0.68650  0.20480  0.68490  1.0000
  O   O16       1.0  0.31350  0.70480  0.31510  1.0000
  O   O17       1.0  0.33870  0.69840  0.93920  1.0000
  O   O18       1.0  0.66130  0.19840  0.06080  1.0000
  O   O19       1.0  0.25060  0.85160  0.98450  1.0000
  O   O20       1.0  0.74940  0.35160  0.01550  1.0000
  O   O21       1.0  0.25190  0.11820  0.96030  1.0000
  O   O22       1.0  0.74810  0.61820  0.03970  1.0000
  O   O23       1.0  0.36270  0.19280  0.90070  1.0000
  O   O24       1.0  0.63730  0.69280  0.09930  1.0000
  O   O25       1.0  0.64370  0.28690  0.57940  1.0000
  O   O26       1.0  0.35630  0.78690  0.42060  1.0000
  O   O27       1.0  0.63810  0.13470  0.51420  1.0000
  O   O28       1.0  0.36190  0.63470  0.48580  1.0000
  O   O29       1.0  0.67910  0.85830  0.53910  1.0000
  O   O30       1.0  0.32090  0.35830  0.46090  1.0000
  O   O31       1.0  0.72420  0.80140  0.62430  1.0000
  O   O32       1.0  0.27580  0.30140  0.37570  1.0000
  C   C1        1.0  0.73190  0.91640  0.83090  1.0000
  C   C2        1.0  0.26810  0.41640  0.16910  1.0000
  C   C3        1.0  0.77690  0.04580  0.81880  1.0000
  C   C4        1.0  0.22310  0.54580  0.18120  1.0000
  C   C5        1.0  0.88860  0.08420  0.84630  1.0000
  C   C6        1.0  0.11140  0.58420  0.15370  1.0000
  H   H1        1.0  0.92296  0.16868  0.83695  1.0000
  H   H2        1.0  0.07704  0.66868  0.16305  1.0000
  C   C7        1.0  0.95150  0.00510  0.88640  1.0000
  C   C8        1.0  0.04850  0.50510  0.11360  1.0000
  H   H3        1.0  0.02754  0.03519  0.90422  1.0000
  H   H4        1.0  0.97246  0.53519  0.09578  1.0000
  C   C9        1.0  0.90310  0.88080  0.90070  1.0000
  C   C10       1.0  0.09690  0.38080  0.09930  1.0000
  H   H5        1.0  0.94352  0.82655  0.92929  1.0000
  H   H6        1.0  0.05648  0.32655  0.07071  1.0000
  C   C11       1.0  0.79400  0.83830  0.87210  1.0000
  C   C12       1.0  0.20600  0.33830  0.12790  1.0000
  H   H7        1.0  0.76090  0.75277  0.88103  1.0000
  H   H8        1.0  0.23910  0.25277  0.11897  1.0000
  C   C13       1.0  0.61200  0.86040  0.80200  1.0000
  C   C14       1.0  0.38800  0.36040  0.19800  1.0000
  H   H9        1.0  0.59358  0.90454  0.76597  1.0000
  H   H10       1.0  0.40642  0.40454  0.23403  1.0000
  H   H11       1.0  0.61947  0.76038  0.79627  1.0000
  H   H12       1.0  0.38053  0.26038  0.20373  1.0000
  C   C15       1.0  0.51010  0.88700  0.83420  1.0000
  C   C16       1.0  0.48990  0.38700  0.16580  1.0000
  C   C17       1.0  0.70840  0.14200  0.77900  1.0000
  C   C18       1.0  0.29160  0.64200  0.22100  1.0000
  H   H13       1.0  0.74006  0.23594  0.78666  1.0000
  H   H14       1.0  0.25994  0.73594  0.21334  1.0000
  H   H15       1.0  0.62286  0.14181  0.78519  1.0000
  H   H16       1.0  0.37714  0.64181  0.21481  1.0000
  C   C19       1.0  0.71320  0.11060  0.71970  1.0000
  C   C20       1.0  0.28680  0.61060  0.28030  1.0000
  C   C21       1.0  0.13990  0.53700  0.98220  1.0000
  C   C22       1.0  0.86010  0.03700  0.01780  1.0000
  C   C23       1.0  0.16170  0.41610  0.95400  1.0000
  C   C24       1.0  0.83830  0.91610  0.04600  1.0000
  C   C25       1.0  0.06550  0.35310  0.92210  1.0000
  C   C26       1.0  0.93450  0.85310  0.07790  1.0000
  H   H17       1.0  0.08011  0.27404  0.90163  1.0000
  H   H18       1.0  0.91989  0.77404  0.09837  1.0000
  C   C27       1.0  0.94800  0.40300  0.91940  1.0000
  C   C28       1.0  0.05200  0.90300  0.08060  1.0000
  H   H19       1.0  0.88317  0.35788  0.89774  1.0000
  H   H20       1.0  0.11683  0.85788  0.10226  1.0000
  C   C29       1.0  0.92700  0.52000  0.94880  1.0000
  C   C30       1.0  0.07300  0.02000  0.05120  1.0000
  H   H21       1.0  0.84732  0.55473  0.94780  1.0000
  H   H22       1.0  0.15268  0.05473  0.05220  1.0000
  C   C31       1.0  0.02270  0.58530  0.97960  1.0000
  C   C32       1.0  0.97730  0.08530  0.02040  1.0000
  H   H23       1.0  0.00772  0.66541  0.99938  1.0000
  H   H24       1.0  0.99228  0.16541  0.00062  1.0000
  C   C33       1.0  0.24050  0.61760  0.01400  1.0000
  C   C34       1.0  0.75950  0.11760  0.98600  1.0000
  H   H25       1.0  0.30911  0.55612  0.02660  1.0000
  H   H26       1.0  0.69089  0.05612  0.97340  1.0000
  H   H27       1.0  0.21201  0.65973  0.04613  1.0000
  H   H28       1.0  0.78799  0.15973  0.95387  1.0000
  C   C35       1.0  0.28020  0.72860  0.97740  1.0000
  C   C36       1.0  0.71980  0.22860  0.02260  1.0000
  C   C37       1.0  0.28870  0.36080  0.95940  1.0000
  C   C38       1.0  0.71130  0.86080  0.04060  1.0000
  H   H29       1.0  0.32332  0.36322  0.99816  1.0000
  H   H30       1.0  0.67668  0.86322  0.00184  1.0000
  H   H31       1.0  0.33772  0.42284  0.93969  1.0000
  H   H32       1.0  0.66228  0.92284  0.06031  1.0000
  C   C39       1.0  0.30070  0.21550  0.93840  1.0000
  C   C40       1.0  0.69930  0.71550  0.06160  1.0000
  C   C41       1.0  0.74230  0.45160  0.48860  1.0000
  C   C42       1.0  0.25770  0.95160  0.51140  1.0000
  C   C43       1.0  0.77200  0.56750  0.52160  1.0000
  C   C44       1.0  0.22800  0.06750  0.47840  1.0000
  C   C45       1.0  0.88140  0.63170  0.52060  1.0000
  C   C46       1.0  0.11860  0.13170  0.47940  1.0000
  H   H33       1.0  0.90184  0.70853  0.54353  1.0000
  H   H34       1.0  0.09816  0.20853  0.45647  1.0000
  C   C47       1.0  0.96270  0.58640  0.48680  1.0000
  C   C48       1.0  0.03730  0.08640  0.51320  1.0000
  H   H35       1.0  0.03696  0.63318  0.48606  1.0000
  H   H36       1.0  0.96304  0.13318  0.51394  1.0000
  C   C49       1.0  0.93390  0.47240  0.45440  1.0000
  C   C50       1.0  0.06610  0.97240  0.54560  1.0000
  H   H37       1.0  0.98907  0.43954  0.43152  1.0000
  H   H38       1.0  0.01093  0.93954  0.56848  1.0000
  C   C51       1.0  0.82450  0.40660  0.45530  1.0000
  C   C52       1.0  0.17550  0.90660  0.54470  1.0000
  H   H39       1.0  0.80509  0.32891  0.43269  1.0000
  H   H40       1.0  0.19491  0.82891  0.56731  1.0000
  C   C53       1.0  0.62350  0.37370  0.48730  1.0000
  C   C54       1.0  0.37650  0.87370  0.51270  1.0000
  H   H41       1.0  0.60012  0.33384  0.45079  1.0000
  H   H42       1.0  0.39988  0.83384  0.54921  1.0000
  H   H43       1.0  0.55917  0.43807  0.49461  1.0000
  H   H44       1.0  0.44083  0.93807  0.50539  1.0000
  C   C55       1.0  0.63570  0.25900  0.52960  1.0000
  C   C56       1.0  0.36430  0.75900  0.47040  1.0000
  C   C57       1.0  0.68770  0.61720  0.56030  1.0000
  C   C58       1.0  0.31230  0.11720  0.43970  1.0000
  H   H45       1.0  0.70268  0.56186  0.59388  1.0000
  H   H46       1.0  0.29732  0.06186  0.40612  1.0000
  H   H47       1.0  0.60363  0.59939  0.54363  1.0000
  H   H48       1.0  0.39637  0.09939  0.45637  1.0000
  C   C59       1.0  0.69870  0.76830  0.57570  1.0000
  C   C60       1.0  0.30130  0.26830  0.42430  1.0000
