data_image0
_chemical_formula_structural       U32O256C24H8C8H8C8H8C8H8C8H16C16H16C32H8C8H8C8H8C8H8C8H16C16H16C32H8C8H8C8H8C8H8C8H16C16H16C32H8C8H8C8H8C8H8C8H16C16H16C32H8C8H8C8H8C8H8C8H16C16H16C32H8C8H8C8H8C8H8C8H16C16H16C8
_chemical_formula_sum              "U32 O256 C480 H384"
_cell_length_a       41.6421
_cell_length_b       21.9873
_cell_length_c       28.0451
_cell_angle_alpha    90
_cell_angle_beta     92.537
_cell_angle_gamma    90

_space_group_name_H-M_alt    "P 1"
_space_group_IT_number       1

loop_
  _space_group_symop_operation_xyz
  'x, y, z'

loop_
  _atom_site_type_symbol
  _atom_site_label
  _atom_site_symmetry_multiplicity
  _atom_site_fract_x
  _atom_site_fract_y
  _atom_site_fract_z
  _atom_site_occupancy
  U   U1        1.0  0.24679  0.44193  0.44436  1.0000
  U   U2        1.0  0.75321  0.44193  0.05564  1.0000
  U   U3        1.0  0.74679  0.94193  0.44436  1.0000
  U   U4        1.0  0.25321  0.94193  0.05564  1.0000
  U   U5        1.0  0.75321  0.55807  0.55564  1.0000
  U   U6        1.0  0.24679  0.55807  0.94436  1.0000
  U   U7        1.0  0.25321  0.05807  0.55564  1.0000
  U   U8        1.0  0.74679  0.05807  0.94436  1.0000
  U   U9        1.0  0.33394  0.37387  0.58304  1.0000
  U   U10       1.0  0.66606  0.37387  0.91696  1.0000
  U   U11       1.0  0.83394  0.87387  0.58304  1.0000
  U   U12       1.0  0.16606  0.87387  0.91696  1.0000
  U   U13       1.0  0.66606  0.62613  0.41696  1.0000
  U   U14       1.0  0.33394  0.62613  0.08304  1.0000
  U   U15       1.0  0.16606  0.12613  0.41696  1.0000
  U   U16       1.0  0.83394  0.12613  0.08304  1.0000
  U   U17       1.0  0.41837  0.04077  0.47874  1.0000
  U   U18       1.0  0.58163  0.04077  0.02126  1.0000
  U   U19       1.0  0.91837  0.54077  0.47874  1.0000
  U   U20       1.0  0.08163  0.54077  0.02126  1.0000
  U   U21       1.0  0.58163  0.95923  0.52126  1.0000
  U   U22       1.0  0.41837  0.95923  0.97874  1.0000
  U   U23       1.0  0.08163  0.45923  0.52126  1.0000
  U   U24       1.0  0.91837  0.45923  0.97874  1.0000
  U   U25       1.0  0.34522  0.92226  0.34721  1.0000
  U   U26       1.0  0.65478  0.92226  0.15279  1.0000
  U   U27       1.0  0.84522  0.42226  0.34721  1.0000
  U   U28       1.0  0.15478  0.42226  0.15279  1.0000
  U   U29       1.0  0.65478  0.07774  0.65279  1.0000
  U   U30       1.0  0.34522  0.07774  0.84721  1.0000
  U   U31       1.0  0.15478  0.57774  0.65279  1.0000
  U   U32       1.0  0.84522  0.57774  0.84721  1.0000
  O   O1        1.0  0.27275  0.38130  0.45960  1.0000
  O   O2        1.0  0.72725  0.38130  0.04040  1.0000
  O   O3        1.0  0.77275  0.88130  0.45960  1.0000
  O   O4        1.0  0.22725  0.88130  0.04040  1.0000
  O   O5        1.0  0.72725  0.61870  0.54040  1.0000
  O   O6        1.0  0.27275  0.61870  0.95960  1.0000
  O   O7        1.0  0.22725  0.11870  0.54040  1.0000
  O   O8        1.0  0.77275  0.11870  0.95960  1.0000
  O   O9        1.0  0.21917  0.50010  0.42670  1.0000
  O   O10       1.0  0.78083  0.50010  0.07330  1.0000
  O   O11       1.0  0.71917  0.00010  0.42670  1.0000
  O   O12       1.0  0.28083  0.00010  0.07330  1.0000
  O   O13       1.0  0.78083  0.49990  0.57330  1.0000
  O   O14       1.0  0.21917  0.49990  0.92670  1.0000
  O   O15       1.0  0.28083  0.99990  0.57330  1.0000
  O   O16       1.0  0.71917  0.99990  0.92670  1.0000
  O   O17       1.0  0.33203  0.40590  0.52530  1.0000
  O   O18       1.0  0.66797  0.40590  0.97470  1.0000
  O   O19       1.0  0.83203  0.90590  0.52530  1.0000
  O   O20       1.0  0.16797  0.90590  0.97470  1.0000
  O   O21       1.0  0.66797  0.59410  0.47470  1.0000
  O   O22       1.0  0.33203  0.59410  0.02530  1.0000
  O   O23       1.0  0.16797  0.09410  0.47470  1.0000
  O   O24       1.0  0.83203  0.09410  0.02530  1.0000
  O   O25       1.0  0.33683  0.34150  0.64050  1.0000
  O   O26       1.0  0.66317  0.34150  0.85950  1.0000
  O   O27       1.0  0.83683  0.84150  0.64050  1.0000
  O   O28       1.0  0.16317  0.84150  0.85950  1.0000
  O   O29       1.0  0.66317  0.65850  0.35950  1.0000
  O   O30       1.0  0.33683  0.65850  0.14050  1.0000
  O   O31       1.0  0.16317  0.15850  0.35950  1.0000
  O   O32       1.0  0.83683  0.15850  0.14050  1.0000
  O   O33       1.0  0.38074  0.03970  0.44790  1.0000
  O   O34       1.0  0.61926  0.03970  0.05210  1.0000
  O   O35       1.0  0.88074  0.53970  0.44790  1.0000
  O   O36       1.0  0.11926  0.53970  0.05210  1.0000
  O   O37       1.0  0.61926  0.96030  0.55210  1.0000
  O   O38       1.0  0.38074  0.96030  0.94790  1.0000
  O   O39       1.0  0.11926  0.46030  0.55210  1.0000
  O   O40       1.0  0.88074  0.46030  0.94790  1.0000
  O   O41       1.0  0.45539  0.04500  0.51140  1.0000
  O   O42       1.0  0.54461  0.04500  0.98860  1.0000
  O   O43       1.0  0.95539  0.54500  0.51140  1.0000
  O   O44       1.0  0.04461  0.54500  0.98860  1.0000
  O   O45       1.0  0.54461  0.95500  0.48860  1.0000
  O   O46       1.0  0.45539  0.95500  0.01140  1.0000
  O   O47       1.0  0.04461  0.45500  0.48860  1.0000
  O   O48       1.0  0.95539  0.45500  0.01140  1.0000
  O   O49       1.0  0.37058  0.98620  0.35260  1.0000
  O   O50       1.0  0.62942  0.98620  0.14740  1.0000
  O   O51       1.0  0.87058  0.48620  0.35260  1.0000
  O   O52       1.0  0.12942  0.48620  0.14740  1.0000
  O   O53       1.0  0.62942  0.01380  0.64740  1.0000
  O   O54       1.0  0.37058  0.01380  0.85260  1.0000
  O   O55       1.0  0.12942  0.51380  0.64740  1.0000
  O   O56       1.0  0.87058  0.51380  0.85260  1.0000
  O   O57       1.0  0.32003  0.85860  0.33790  1.0000
  O   O58       1.0  0.67997  0.85860  0.16210  1.0000
  O   O59       1.0  0.82003  0.35860  0.33790  1.0000
  O   O60       1.0  0.17997  0.35860  0.16210  1.0000
  O   O61       1.0  0.67997  0.14140  0.66210  1.0000
  O   O62       1.0  0.32003  0.14140  0.83790  1.0000
  O   O63       1.0  0.17997  0.64140  0.66210  1.0000
  O   O64       1.0  0.82003  0.64140  0.83790  1.0000
  O   O65       1.0  0.20150  0.37260  0.45000  1.0000
  O   O66       1.0  0.79850  0.37260  0.05000  1.0000
  O   O67       1.0  0.70150  0.87260  0.45000  1.0000
  O   O68       1.0  0.29850  0.87260  0.05000  1.0000
  O   O69       1.0  0.79850  0.62740  0.55000  1.0000
  O   O70       1.0  0.20150  0.62740  0.95000  1.0000
  O   O71       1.0  0.29850  0.12740  0.55000  1.0000
  O   O72       1.0  0.70150  0.12740  0.95000  1.0000
  O   O73       1.0  0.21777  0.41640  0.51720  1.0000
  O   O74       1.0  0.78223  0.41640  0.98280  1.0000
  O   O75       1.0  0.71777  0.91640  0.51720  1.0000
  O   O76       1.0  0.28223  0.91640  0.98280  1.0000
  O   O77       1.0  0.78223  0.58360  0.48280  1.0000
  O   O78       1.0  0.21777  0.58360  0.01720  1.0000
  O   O79       1.0  0.28223  0.08360  0.48280  1.0000
  O   O80       1.0  0.71777  0.08360  0.01720  1.0000
  O   O81       1.0  0.29939  0.28840  0.55660  1.0000
  O   O82       1.0  0.70061  0.28840  0.94340  1.0000
  O   O83       1.0  0.79939  0.78840  0.55660  1.0000
  O   O84       1.0  0.20061  0.78840  0.94340  1.0000
  O   O85       1.0  0.70061  0.71160  0.44340  1.0000
  O   O86       1.0  0.29939  0.71160  0.05660  1.0000
  O   O87       1.0  0.20061  0.21160  0.44340  1.0000
  O   O88       1.0  0.79939  0.21160  0.05660  1.0000
  O   O89       1.0  0.27553  0.36440  0.58680  1.0000
  O   O90       1.0  0.72447  0.36440  0.91320  1.0000
  O   O91       1.0  0.77553  0.86440  0.58680  1.0000
  O   O92       1.0  0.22447  0.86440  0.91320  1.0000
  O   O93       1.0  0.72447  0.63560  0.41320  1.0000
  O   O94       1.0  0.27553  0.63560  0.08680  1.0000
  O   O95       1.0  0.22447  0.13560  0.41320  1.0000
  O   O96       1.0  0.77553  0.13560  0.08680  1.0000
  O   O97       1.0  0.26273  0.50320  0.51449  1.0000
  O   O98       1.0  0.73727  0.50320  0.98551  1.0000
  O   O99       1.0  0.76273  0.00320  0.51449  1.0000
  O   O100      1.0  0.23727  0.00320  0.98551  1.0000
  O   O101      1.0  0.73727  0.49680  0.48551  1.0000
  O   O102      1.0  0.26273  0.49680  0.01449  1.0000
  O   O103      1.0  0.23727  0.99680  0.48551  1.0000
  O   O104      1.0  0.76273  0.99680  0.01449  1.0000
  O   O105      1.0  0.29166  0.51480  0.45239  1.0000
  O   O106      1.0  0.70834  0.51480  0.04761  1.0000
  O   O107      1.0  0.79166  0.01480  0.45239  1.0000
  O   O108      1.0  0.20834  0.01480  0.04761  1.0000
  O   O109      1.0  0.70834  0.48520  0.54761  1.0000
  O   O110      1.0  0.29166  0.48520  0.95239  1.0000
  O   O111      1.0  0.20834  0.98520  0.54761  1.0000
  O   O112      1.0  0.79166  0.98520  0.95239  1.0000
  O   O113      1.0  0.30871  0.46800  0.60890  1.0000
  O   O114      1.0  0.69129  0.46800  0.89110  1.0000
  O   O115      1.0  0.80871  0.96800  0.60890  1.0000
  O   O116      1.0  0.19129  0.96800  0.89110  1.0000
  O   O117      1.0  0.69129  0.53200  0.39110  1.0000
  O   O118      1.0  0.30871  0.53200  0.10890  1.0000
  O   O119      1.0  0.19129  0.03200  0.39110  1.0000
  O   O120      1.0  0.80871  0.03200  0.10890  1.0000
  O   O121      1.0  0.36229  0.46830  0.61010  1.0000
  O   O122      1.0  0.63771  0.46830  0.88990  1.0000
  O   O123      1.0  0.86229  0.96830  0.61010  1.0000
  O   O124      1.0  0.13771  0.96830  0.88990  1.0000
  O   O125      1.0  0.63771  0.53170  0.38990  1.0000
  O   O126      1.0  0.36229  0.53170  0.11010  1.0000
  O   O127      1.0  0.13771  0.03170  0.38990  1.0000
  O   O128      1.0  0.86229  0.03170  0.11010  1.0000
  O   O129      1.0  0.27263  0.45750  0.36700  1.0000
  O   O130      1.0  0.72737  0.45750  0.13300  1.0000
  O   O131      1.0  0.77263  0.95750  0.36700  1.0000
  O   O132      1.0  0.22737  0.95750  0.13300  1.0000
  O   O133      1.0  0.72737  0.54250  0.63300  1.0000
  O   O134      1.0  0.27263  0.54250  0.86700  1.0000
  O   O135      1.0  0.22737  0.04250  0.63300  1.0000
  O   O136      1.0  0.77263  0.04250  0.86700  1.0000
  O   O137      1.0  0.23350  0.39100  0.36700  1.0000
  O   O138      1.0  0.76650  0.39100  0.13300  1.0000
  O   O139      1.0  0.73350  0.89100  0.36700  1.0000
  O   O140      1.0  0.26650  0.89100  0.13300  1.0000
  O   O141      1.0  0.76650  0.60900  0.63300  1.0000
  O   O142      1.0  0.23350  0.60900  0.86700  1.0000
  O   O143      1.0  0.26650  0.10900  0.63300  1.0000
  O   O144      1.0  0.73350  0.10900  0.86700  1.0000
  O   O145      1.0  0.16927  0.45160  0.23750  1.0000
  O   O146      1.0  0.83073  0.45160  0.26250  1.0000
  O   O147      1.0  0.66927  0.95160  0.23750  1.0000
  O   O148      1.0  0.33073  0.95160  0.26250  1.0000
  O   O149      1.0  0.83073  0.54840  0.76250  1.0000
  O   O150      1.0  0.16927  0.54840  0.73750  1.0000
  O   O151      1.0  0.33073  0.04840  0.76250  1.0000
  O   O152      1.0  0.66927  0.04840  0.73750  1.0000
  O   O153      1.0  0.20024  0.48620  0.18280  1.0000
  O   O154      1.0  0.79976  0.48620  0.31720  1.0000
  O   O155      1.0  0.70024  0.98620  0.18280  1.0000
  O   O156      1.0  0.29976  0.98620  0.31720  1.0000
  O   O157      1.0  0.79976  0.51380  0.81720  1.0000
  O   O158      1.0  0.20024  0.51380  0.68280  1.0000
  O   O159      1.0  0.29976  0.01380  0.81720  1.0000
  O   O160      1.0  0.70024  0.01380  0.68280  1.0000
  O   O161      1.0  0.39345  0.36660  0.57910  1.0000
  O   O162      1.0  0.60655  0.36660  0.92090  1.0000
  O   O163      1.0  0.89345  0.86660  0.57910  1.0000
  O   O164      1.0  0.10655  0.86660  0.92090  1.0000
  O   O165      1.0  0.60655  0.63340  0.42090  1.0000
  O   O166      1.0  0.39345  0.63340  0.07910  1.0000
  O   O167      1.0  0.10655  0.13340  0.42090  1.0000
  O   O168      1.0  0.89345  0.13340  0.07910  1.0000
  O   O169      1.0  0.36565  0.28830  0.55460  1.0000
  O   O170      1.0  0.63435  0.28830  0.94540  1.0000
  O   O171      1.0  0.86565  0.78830  0.55460  1.0000
  O   O172      1.0  0.13435  0.78830  0.94540  1.0000
  O   O173      1.0  0.63435  0.71170  0.44540  1.0000
  O   O174      1.0  0.36565  0.71170  0.05460  1.0000
  O   O175      1.0  0.13435  0.21170  0.44540  1.0000
  O   O176      1.0  0.86565  0.21170  0.05460  1.0000
  O   O177      1.0  0.42794  0.14100  0.44040  1.0000
  O   O178      1.0  0.57206  0.14100  0.05960  1.0000
  O   O179      1.0  0.92794  0.64100  0.44040  1.0000
  O   O180      1.0  0.07206  0.64100  0.05960  1.0000
  O   O181      1.0  0.57206  0.85900  0.55960  1.0000
  O   O182      1.0  0.42794  0.85900  0.94040  1.0000
  O   O183      1.0  0.07206  0.35900  0.55960  1.0000
  O   O184      1.0  0.92794  0.35900  0.94040  1.0000
  O   O185      1.0  0.40195  0.14260  0.50700  1.0000
  O   O186      1.0  0.59805  0.14260  0.99300  1.0000
  O   O187      1.0  0.90195  0.64260  0.50700  1.0000
  O   O188      1.0  0.09805  0.64260  0.99300  1.0000
  O   O189      1.0  0.59805  0.85740  0.49300  1.0000
  O   O190      1.0  0.40195  0.85740  0.00700  1.0000
  O   O191      1.0  0.09805  0.35740  0.49300  1.0000
  O   O192      1.0  0.90195  0.35740  0.00700  1.0000
  O   O193      1.0  0.38990  0.03550  0.55490  1.0000
  O   O194      1.0  0.61010  0.03550  0.94510  1.0000
  O   O195      1.0  0.88990  0.53550  0.55490  1.0000
  O   O196      1.0  0.11010  0.53550  0.94510  1.0000
  O   O197      1.0  0.61010  0.96450  0.44510  1.0000
  O   O198      1.0  0.38990  0.96450  0.05490  1.0000
  O   O199      1.0  0.11010  0.46450  0.44510  1.0000
  O   O200      1.0  0.88990  0.46450  0.05490  1.0000
  O   O201      1.0  0.39871  0.94900  0.51880  1.0000
  O   O202      1.0  0.60129  0.94900  0.98120  1.0000
  O   O203      1.0  0.89871  0.44900  0.51880  1.0000
  O   O204      1.0  0.10129  0.44900  0.98120  1.0000
  O   O205      1.0  0.60129  0.05100  0.48120  1.0000
  O   O206      1.0  0.39871  0.05100  0.01880  1.0000
  O   O207      1.0  0.10129  0.55100  0.48120  1.0000
  O   O208      1.0  0.89871  0.55100  0.01880  1.0000
  O   O209      1.0  0.31317  0.96000  0.41220  1.0000
  O   O210      1.0  0.68683  0.96000  0.08780  1.0000
  O   O211      1.0  0.81317  0.46000  0.41220  1.0000
  O   O212      1.0  0.18683  0.46000  0.08780  1.0000
  O   O213      1.0  0.68683  0.04000  0.58780  1.0000
  O   O214      1.0  0.31317  0.04000  0.91220  1.0000
  O   O215      1.0  0.18683  0.54000  0.58780  1.0000
  O   O216      1.0  0.81317  0.54000  0.91220  1.0000
  O   O217      1.0  0.35028  0.89430  0.43190  1.0000
  O   O218      1.0  0.64972  0.89430  0.06810  1.0000
  O   O219      1.0  0.85028  0.39430  0.43190  1.0000
  O   O220      1.0  0.14972  0.39430  0.06810  1.0000
  O   O221      1.0  0.64972  0.10570  0.56810  1.0000
  O   O222      1.0  0.35028  0.10570  0.93190  1.0000
  O   O223      1.0  0.14972  0.60570  0.56810  1.0000
  O   O224      1.0  0.85028  0.60570  0.93190  1.0000
  O   O225      1.0  0.43557  0.94750  0.44010  1.0000
  O   O226      1.0  0.56443  0.94750  0.05990  1.0000
  O   O227      1.0  0.93557  0.44750  0.44010  1.0000
  O   O228      1.0  0.06443  0.44750  0.05990  1.0000
  O   O229      1.0  0.56443  0.05250  0.55990  1.0000
  O   O230      1.0  0.43557  0.05250  0.94010  1.0000
  O   O231      1.0  0.06443  0.55250  0.55990  1.0000
  O   O232      1.0  0.93557  0.55250  0.94010  1.0000
  O   O233      1.0  0.44569  0.03030  0.40240  1.0000
  O   O234      1.0  0.55431  0.03030  0.09760  1.0000
  O   O235      1.0  0.94569  0.53030  0.40240  1.0000
  O   O236      1.0  0.05431  0.53030  0.09760  1.0000
  O   O237      1.0  0.55431  0.96970  0.59760  1.0000
  O   O238      1.0  0.44569  0.96970  0.90240  1.0000
  O   O239      1.0  0.05431  0.46970  0.59760  1.0000
  O   O240      1.0  0.94569  0.46970  0.90240  1.0000
  O   O241      1.0  0.39160  0.85730  0.36890  1.0000
  O   O242      1.0  0.60840  0.85730  0.13110  1.0000
  O   O243      1.0  0.89160  0.35730  0.36890  1.0000
  O   O244      1.0  0.10840  0.35730  0.13110  1.0000
  O   O245      1.0  0.60840  0.14270  0.63110  1.0000
  O   O246      1.0  0.39160  0.14270  0.86890  1.0000
  O   O247      1.0  0.10840  0.64270  0.63110  1.0000
  O   O248      1.0  0.89160  0.64270  0.86890  1.0000
  O   O249      1.0  0.38565  0.87920  0.29390  1.0000
  O   O250      1.0  0.61435  0.87920  0.20610  1.0000
  O   O251      1.0  0.88565  0.37920  0.29390  1.0000
  O   O252      1.0  0.11435  0.37920  0.20610  1.0000
  O   O253      1.0  0.61435  0.12080  0.70610  1.0000
  O   O254      1.0  0.38565  0.12080  0.79390  1.0000
  O   O255      1.0  0.11435  0.62080  0.70610  1.0000
  O   O256      1.0  0.88565  0.62080  0.79390  1.0000
  C   C1        1.0  0.18760  0.33140  0.57490  1.0000
  C   C2        1.0  0.81240  0.33140  0.92510  1.0000
  C   C3        1.0  0.68760  0.83140  0.57490  1.0000
  C   C4        1.0  0.31240  0.83140  0.92510  1.0000
  C   C5        1.0  0.81240  0.66860  0.42510  1.0000
  C   C6        1.0  0.18760  0.66860  0.07490  1.0000
  C   C7        1.0  0.31240  0.16860  0.42510  1.0000
  C   C8        1.0  0.68760  0.16860  0.07490  1.0000
  C   C9        1.0  0.21660  0.30410  0.59420  1.0000
  C   C10       1.0  0.78340  0.30410  0.90580  1.0000
  C   C11       1.0  0.71660  0.80410  0.59420  1.0000
  C   C12       1.0  0.28340  0.80410  0.90580  1.0000
  C   C13       1.0  0.78340  0.69590  0.40580  1.0000
  C   C14       1.0  0.21660  0.69590  0.09420  1.0000
  C   C15       1.0  0.28340  0.19590  0.40580  1.0000
  C   C16       1.0  0.71660  0.19590  0.09420  1.0000
  C   C17       1.0  0.22050  0.30180  0.64370  1.0000
  C   C18       1.0  0.77950  0.30180  0.85630  1.0000
  C   C19       1.0  0.72050  0.80180  0.64370  1.0000
  C   C20       1.0  0.27950  0.80180  0.85630  1.0000
  C   C21       1.0  0.77950  0.69820  0.35630  1.0000
  C   C22       1.0  0.22050  0.69820  0.14370  1.0000
  C   C23       1.0  0.27950  0.19820  0.35630  1.0000
  C   C24       1.0  0.72050  0.19820  0.14370  1.0000
  H   H1        1.0  0.23950  0.28270  0.65660  1.0000
  H   H2        1.0  0.76050  0.28270  0.84340  1.0000
  H   H3        1.0  0.73950  0.78270  0.65660  1.0000
  H   H4        1.0  0.26050  0.78270  0.84340  1.0000
  H   H5        1.0  0.76050  0.71730  0.34340  1.0000
  H   H6        1.0  0.23950  0.71730  0.15660  1.0000
  H   H7        1.0  0.26050  0.21730  0.34340  1.0000
  H   H8        1.0  0.73950  0.21730  0.15660  1.0000
  C   C25       1.0  0.20030  0.32370  0.67450  1.0000
  C   C26       1.0  0.79970  0.32370  0.82550  1.0000
  C   C27       1.0  0.70030  0.82370  0.67450  1.0000
  C   C28       1.0  0.29970  0.82370  0.82550  1.0000
  C   C29       1.0  0.79970  0.67630  0.32550  1.0000
  C   C30       1.0  0.20030  0.67630  0.17450  1.0000
  C   C31       1.0  0.29970  0.17630  0.32550  1.0000
  C   C32       1.0  0.70030  0.17630  0.17450  1.0000
  H   H9        1.0  0.20400  0.32000  0.70800  1.0000
  H   H10       1.0  0.79600  0.32000  0.79200  1.0000
  H   H11       1.0  0.70400  0.82000  0.70800  1.0000
  H   H12       1.0  0.29600  0.82000  0.79200  1.0000
  H   H13       1.0  0.79600  0.68000  0.29200  1.0000
  H   H14       1.0  0.20400  0.68000  0.20800  1.0000
  H   H15       1.0  0.29600  0.18000  0.29200  1.0000
  H   H16       1.0  0.70400  0.18000  0.20800  1.0000
  C   C33       1.0  0.17350  0.35200  0.65460  1.0000
  C   C34       1.0  0.82650  0.35200  0.84540  1.0000
  C   C35       1.0  0.67350  0.85200  0.65460  1.0000
  C   C36       1.0  0.32650  0.85200  0.84540  1.0000
  C   C37       1.0  0.82650  0.64800  0.34540  1.0000
  C   C38       1.0  0.17350  0.64800  0.15460  1.0000
  C   C39       1.0  0.32650  0.14800  0.34540  1.0000
  C   C40       1.0  0.67350  0.14800  0.15460  1.0000
  H   H17       1.0  0.15870  0.37030  0.67510  1.0000
  H   H18       1.0  0.84130  0.37030  0.82490  1.0000
  H   H19       1.0  0.65870  0.87030  0.67510  1.0000
  H   H20       1.0  0.34130  0.87030  0.82490  1.0000
  H   H21       1.0  0.84130  0.62970  0.32490  1.0000
  H   H22       1.0  0.15870  0.62970  0.17510  1.0000
  H   H23       1.0  0.34130  0.12970  0.32490  1.0000
  H   H24       1.0  0.65870  0.12970  0.17510  1.0000
  C   C41       1.0  0.16750  0.35470  0.60720  1.0000
  C   C42       1.0  0.83250  0.35470  0.89280  1.0000
  C   C43       1.0  0.66750  0.85470  0.60720  1.0000
  C   C44       1.0  0.33250  0.85470  0.89280  1.0000
  C   C45       1.0  0.83250  0.64530  0.39280  1.0000
  C   C46       1.0  0.16750  0.64530  0.10720  1.0000
  C   C47       1.0  0.33250  0.14530  0.39280  1.0000
  C   C48       1.0  0.66750  0.14530  0.10720  1.0000
  H   H25       1.0  0.14820  0.37390  0.59560  1.0000
  H   H26       1.0  0.85180  0.37390  0.90440  1.0000
  H   H27       1.0  0.64820  0.87390  0.59560  1.0000
  H   H28       1.0  0.35180  0.87390  0.90440  1.0000
  H   H29       1.0  0.85180  0.62610  0.40440  1.0000
  H   H30       1.0  0.14820  0.62610  0.09560  1.0000
  H   H31       1.0  0.35180  0.12610  0.40440  1.0000
  H   H32       1.0  0.64820  0.12610  0.09560  1.0000
  C   C49       1.0  0.17960  0.33290  0.52210  1.0000
  C   C50       1.0  0.82040  0.33290  0.97790  1.0000
  C   C51       1.0  0.67960  0.83290  0.52210  1.0000
  C   C52       1.0  0.32040  0.83290  0.97790  1.0000
  C   C53       1.0  0.82040  0.66710  0.47790  1.0000
  C   C54       1.0  0.17960  0.66710  0.02210  1.0000
  C   C55       1.0  0.32040  0.16710  0.47790  1.0000
  C   C56       1.0  0.67960  0.16710  0.02210  1.0000
  H   H33       1.0  0.18210  0.29150  0.50900  1.0000
  H   H34       1.0  0.81790  0.29150  0.99100  1.0000
  H   H35       1.0  0.68210  0.79150  0.50900  1.0000
  H   H36       1.0  0.31790  0.79150  0.99100  1.0000
  H   H37       1.0  0.81790  0.70850  0.49100  1.0000
  H   H38       1.0  0.18210  0.70850  0.00900  1.0000
  H   H39       1.0  0.31790  0.20850  0.49100  1.0000
  H   H40       1.0  0.68210  0.20850  0.00900  1.0000
  H   H41       1.0  0.15670  0.34470  0.51680  1.0000
  H   H42       1.0  0.84330  0.34470  0.98320  1.0000
  H   H43       1.0  0.65670  0.84470  0.51680  1.0000
  H   H44       1.0  0.34330  0.84470  0.98320  1.0000
  H   H45       1.0  0.84330  0.65530  0.48320  1.0000
  H   H46       1.0  0.15670  0.65530  0.01680  1.0000
  H   H47       1.0  0.34330  0.15530  0.48320  1.0000
  H   H48       1.0  0.65670  0.15530  0.01680  1.0000
  C   C57       1.0  0.20000  0.37600  0.49530  1.0000
  C   C58       1.0  0.80000  0.37600  0.00470  1.0000
  C   C59       1.0  0.70000  0.87600  0.49530  1.0000
  C   C60       1.0  0.30000  0.87600  0.00470  1.0000
  C   C61       1.0  0.80000  0.62400  0.50470  1.0000
  C   C62       1.0  0.20000  0.62400  0.99530  1.0000
  C   C63       1.0  0.30000  0.12400  0.50470  1.0000
  C   C64       1.0  0.70000  0.12400  0.99530  1.0000
  C   C65       1.0  0.24310  0.27890  0.56430  1.0000
  C   C66       1.0  0.75690  0.27890  0.93570  1.0000
  C   C67       1.0  0.74310  0.77890  0.56430  1.0000
  C   C68       1.0  0.25690  0.77890  0.93570  1.0000
  C   C69       1.0  0.75690  0.72110  0.43570  1.0000
  C   C70       1.0  0.24310  0.72110  0.06430  1.0000
  C   C71       1.0  0.25690  0.22110  0.43570  1.0000
  C   C72       1.0  0.74310  0.22110  0.06430  1.0000
  H   H49       1.0  0.24690  0.23590  0.57340  1.0000
  H   H50       1.0  0.75310  0.23590  0.92660  1.0000
  H   H51       1.0  0.74690  0.73590  0.57340  1.0000
  H   H52       1.0  0.25310  0.73590  0.92660  1.0000
  H   H53       1.0  0.75310  0.76410  0.42660  1.0000
  H   H54       1.0  0.24690  0.76410  0.07340  1.0000
  H   H55       1.0  0.25310  0.26410  0.42660  1.0000
  H   H56       1.0  0.74690  0.26410  0.07340  1.0000
  H   H57       1.0  0.23540  0.27940  0.53040  1.0000
  H   H58       1.0  0.76460  0.27940  0.96960  1.0000
  H   H59       1.0  0.73540  0.77940  0.53040  1.0000
  H   H60       1.0  0.26460  0.77940  0.96960  1.0000
  H   H61       1.0  0.76460  0.72060  0.46960  1.0000
  H   H62       1.0  0.23540  0.72060  0.03040  1.0000
  H   H63       1.0  0.26460  0.22060  0.46960  1.0000
  H   H64       1.0  0.73540  0.22060  0.03040  1.0000
  C   C73       1.0  0.27420  0.31200  0.56860  1.0000
  C   C74       1.0  0.72580  0.31200  0.93140  1.0000
  C   C75       1.0  0.77420  0.81200  0.56860  1.0000
  C   C76       1.0  0.22580  0.81200  0.93140  1.0000
  C   C77       1.0  0.72580  0.68800  0.43140  1.0000
  C   C78       1.0  0.27420  0.68800  0.06860  1.0000
  C   C79       1.0  0.22580  0.18800  0.43140  1.0000
  C   C80       1.0  0.77420  0.18800  0.06860  1.0000
  C   C81       1.0  0.29110  0.60220  0.56390  1.0000
  C   C82       1.0  0.70890  0.60220  0.93610  1.0000
  C   C83       1.0  0.79110  0.10220  0.56390  1.0000
  C   C84       1.0  0.20890  0.10220  0.93610  1.0000
  C   C85       1.0  0.70890  0.39780  0.43610  1.0000
  C   C86       1.0  0.29110  0.39780  0.06390  1.0000
  C   C87       1.0  0.20890  0.89780  0.43610  1.0000
  C   C88       1.0  0.79110  0.89780  0.06390  1.0000
  C   C89       1.0  0.30540  0.59630  0.61060  1.0000
  C   C90       1.0  0.69460  0.59630  0.88940  1.0000
  C   C91       1.0  0.80540  0.09630  0.61060  1.0000
  C   C92       1.0  0.19460  0.09630  0.88940  1.0000
  C   C93       1.0  0.69460  0.40370  0.38940  1.0000
  C   C94       1.0  0.30540  0.40370  0.11060  1.0000
  C   C95       1.0  0.19460  0.90370  0.38940  1.0000
  C   C96       1.0  0.80540  0.90370  0.11060  1.0000
  C   C97       1.0  0.28790  0.61910  0.64770  1.0000
  C   C98       1.0  0.71210  0.61910  0.85230  1.0000
  C   C99       1.0  0.78790  0.11910  0.64770  1.0000
  C   C100      1.0  0.21210  0.11910  0.85230  1.0000
  C   C101      1.0  0.71210  0.38090  0.35230  1.0000
  C   C102      1.0  0.28790  0.38090  0.14770  1.0000
  C   C103      1.0  0.21210  0.88090  0.35230  1.0000
  C   C104      1.0  0.78790  0.88090  0.14770  1.0000
  H   H65       1.0  0.29660  0.61410  0.67940  1.0000
  H   H66       1.0  0.70340  0.61410  0.82060  1.0000
  H   H67       1.0  0.79660  0.11410  0.67940  1.0000
  H   H68       1.0  0.20340  0.11410  0.82060  1.0000
  H   H69       1.0  0.70340  0.38590  0.32060  1.0000
  H   H70       1.0  0.29660  0.38590  0.17940  1.0000
  H   H71       1.0  0.20340  0.88590  0.32060  1.0000
  H   H72       1.0  0.79660  0.88590  0.17940  1.0000
  C   C105      1.0  0.25870  0.64880  0.64160  1.0000
  C   C106      1.0  0.74130  0.64880  0.85840  1.0000
  C   C107      1.0  0.75870  0.14880  0.64160  1.0000
  C   C108      1.0  0.24130  0.14880  0.85840  1.0000
  C   C109      1.0  0.74130  0.35120  0.35840  1.0000
  C   C110      1.0  0.25870  0.35120  0.14160  1.0000
  C   C111      1.0  0.24130  0.85120  0.35840  1.0000
  C   C112      1.0  0.75870  0.85120  0.14160  1.0000
  H   H73       1.0  0.24770  0.66360  0.66820  1.0000
  H   H74       1.0  0.75230  0.66360  0.83180  1.0000
  H   H75       1.0  0.74770  0.16360  0.66820  1.0000
  H   H76       1.0  0.25230  0.16360  0.83180  1.0000
  H   H77       1.0  0.75230  0.33640  0.33180  1.0000
  H   H78       1.0  0.24770  0.33640  0.16820  1.0000
  H   H79       1.0  0.25230  0.83640  0.33180  1.0000
  H   H80       1.0  0.74770  0.83640  0.16820  1.0000
  C   C113      1.0  0.24590  0.65640  0.59530  1.0000
  C   C114      1.0  0.75410  0.65640  0.90470  1.0000
  C   C115      1.0  0.74590  0.15640  0.59530  1.0000
  C   C116      1.0  0.25410  0.15640  0.90470  1.0000
  C   C117      1.0  0.75410  0.34360  0.40470  1.0000
  C   C118      1.0  0.24590  0.34360  0.09530  1.0000
  C   C119      1.0  0.25410  0.84360  0.40470  1.0000
  C   C120      1.0  0.74590  0.84360  0.09530  1.0000
  H   H81       1.0  0.22630  0.67760  0.58950  1.0000
  H   H82       1.0  0.77370  0.67760  0.91050  1.0000
  H   H83       1.0  0.72630  0.17760  0.58950  1.0000
  H   H84       1.0  0.27370  0.17760  0.91050  1.0000
  H   H85       1.0  0.77370  0.32240  0.41050  1.0000
  H   H86       1.0  0.22630  0.32240  0.08950  1.0000
  H   H87       1.0  0.27370  0.82240  0.41050  1.0000
  H   H88       1.0  0.72630  0.82240  0.08950  1.0000
  C   C121      1.0  0.26230  0.63260  0.55770  1.0000
  C   C122      1.0  0.73770  0.63260  0.94230  1.0000
  C   C123      1.0  0.76230  0.13260  0.55770  1.0000
  C   C124      1.0  0.23770  0.13260  0.94230  1.0000
  C   C125      1.0  0.73770  0.36740  0.44230  1.0000
  C   C126      1.0  0.26230  0.36740  0.05770  1.0000
  C   C127      1.0  0.23770  0.86740  0.44230  1.0000
  C   C128      1.0  0.76230  0.86740  0.05770  1.0000
  H   H89       1.0  0.25330  0.63760  0.52630  1.0000
  H   H90       1.0  0.74670  0.63760  0.97370  1.0000
  H   H91       1.0  0.75330  0.13760  0.52630  1.0000
  H   H92       1.0  0.24670  0.13760  0.97370  1.0000
  H   H93       1.0  0.74670  0.36240  0.47370  1.0000
  H   H94       1.0  0.25330  0.36240  0.02630  1.0000
  H   H95       1.0  0.24670  0.86240  0.47370  1.0000
  H   H96       1.0  0.75330  0.86240  0.02630  1.0000
  C   C129      1.0  0.30690  0.57380  0.52080  1.0000
  C   C130      1.0  0.69310  0.57380  0.97920  1.0000
  C   C131      1.0  0.80690  0.07380  0.52080  1.0000
  C   C132      1.0  0.19310  0.07380  0.97920  1.0000
  C   C133      1.0  0.69310  0.42620  0.47920  1.0000
  C   C134      1.0  0.30690  0.42620  0.02080  1.0000
  C   C135      1.0  0.19310  0.92620  0.47920  1.0000
  C   C136      1.0  0.80690  0.92620  0.02080  1.0000
  H   H97       1.0  0.31250  0.60660  0.49850  1.0000
  H   H98       1.0  0.68750  0.60660  0.00150  1.0000
  H   H99       1.0  0.81250  0.10660  0.49850  1.0000
  H   H100      1.0  0.18750  0.10660  0.00150  1.0000
  H   H101      1.0  0.68750  0.39340  0.50150  1.0000
  H   H102      1.0  0.31250  0.39340  0.99850  1.0000
  H   H103      1.0  0.18750  0.89340  0.50150  1.0000
  H   H104      1.0  0.81250  0.89340  0.99850  1.0000
  H   H105      1.0  0.32710  0.55350  0.53190  1.0000
  H   H106      1.0  0.67290  0.55350  0.96810  1.0000
  H   H107      1.0  0.82710  0.05350  0.53190  1.0000
  H   H108      1.0  0.17290  0.05350  0.96810  1.0000
  H   H109      1.0  0.67290  0.44650  0.46810  1.0000
  H   H110      1.0  0.32710  0.44650  0.03190  1.0000
  H   H111      1.0  0.17290  0.94650  0.46810  1.0000
  H   H112      1.0  0.82710  0.94650  0.03190  1.0000
  C   C137      1.0  0.28570  0.52830  0.49450  1.0000
  C   C138      1.0  0.71430  0.52830  0.00550  1.0000
  C   C139      1.0  0.78570  0.02830  0.49450  1.0000
  C   C140      1.0  0.21430  0.02830  0.00550  1.0000
  C   C141      1.0  0.71430  0.47170  0.50550  1.0000
  C   C142      1.0  0.28570  0.47170  0.99450  1.0000
  C   C143      1.0  0.21430  0.97170  0.50550  1.0000
  C   C144      1.0  0.78570  0.97170  0.99450  1.0000
  C   C145      1.0  0.33620  0.56520  0.62070  1.0000
  C   C146      1.0  0.66380  0.56520  0.87930  1.0000
  C   C147      1.0  0.83620  0.06520  0.62070  1.0000
  C   C148      1.0  0.16380  0.06520  0.87930  1.0000
  C   C149      1.0  0.66380  0.43480  0.37930  1.0000
  C   C150      1.0  0.33620  0.43480  0.12070  1.0000
  C   C151      1.0  0.16380  0.93480  0.37930  1.0000
  C   C152      1.0  0.83620  0.93480  0.12070  1.0000
  H   H113      1.0  0.34350  0.57330  0.65410  1.0000
  H   H114      1.0  0.65650  0.57330  0.84590  1.0000
  H   H115      1.0  0.84350  0.07330  0.65410  1.0000
  H   H116      1.0  0.15650  0.07330  0.84590  1.0000
  H   H117      1.0  0.65650  0.42670  0.34590  1.0000
  H   H118      1.0  0.34350  0.42670  0.15410  1.0000
  H   H119      1.0  0.15650  0.92670  0.34590  1.0000
  H   H120      1.0  0.84350  0.92670  0.15410  1.0000
  H   H121      1.0  0.35250  0.58210  0.59970  1.0000
  H   H122      1.0  0.64750  0.58210  0.90030  1.0000
  H   H123      1.0  0.85250  0.08210  0.59970  1.0000
  H   H124      1.0  0.14750  0.08210  0.90030  1.0000
  H   H125      1.0  0.64750  0.41790  0.40030  1.0000
  H   H126      1.0  0.35250  0.41790  0.09970  1.0000
  H   H127      1.0  0.14750  0.91790  0.40030  1.0000
  H   H128      1.0  0.85250  0.91790  0.09970  1.0000
  C   C153      1.0  0.33410  0.49600  0.61300  1.0000
  C   C154      1.0  0.66590  0.49600  0.88700  1.0000
  C   C155      1.0  0.83410  0.99600  0.61300  1.0000
  C   C156      1.0  0.16590  0.99600  0.88700  1.0000
  C   C157      1.0  0.66590  0.50400  0.38700  1.0000
  C   C158      1.0  0.33410  0.50400  0.11300  1.0000
  C   C159      1.0  0.16590  0.00400  0.38700  1.0000
  C   C160      1.0  0.83410  0.00400  0.11300  1.0000
  C   C161      1.0  0.27110  0.46640  0.26690  1.0000
  C   C162      1.0  0.72890  0.46640  0.23310  1.0000
  C   C163      1.0  0.77110  0.96640  0.26690  1.0000
  C   C164      1.0  0.22890  0.96640  0.23310  1.0000
  C   C165      1.0  0.72890  0.53360  0.73310  1.0000
  C   C166      1.0  0.27110  0.53360  0.76690  1.0000
  C   C167      1.0  0.22890  0.03360  0.73310  1.0000
  C   C168      1.0  0.77110  0.03360  0.76690  1.0000
  C   C169      1.0  0.25020  0.51300  0.25270  1.0000
  C   C170      1.0  0.74980  0.51300  0.24730  1.0000
  C   C171      1.0  0.75020  0.01300  0.25270  1.0000
  C   C172      1.0  0.24980  0.01300  0.24730  1.0000
  C   C173      1.0  0.74980  0.48700  0.74730  1.0000
  C   C174      1.0  0.25020  0.48700  0.75270  1.0000
  C   C175      1.0  0.24980  0.98700  0.74730  1.0000
  C   C176      1.0  0.75020  0.98700  0.75270  1.0000
  C   C177      1.0  0.26210  0.56170  0.22600  1.0000
  C   C178      1.0  0.73790  0.56170  0.27400  1.0000
  C   C179      1.0  0.76210  0.06170  0.22600  1.0000
  C   C180      1.0  0.23790  0.06170  0.27400  1.0000
  C   C181      1.0  0.73790  0.43830  0.77400  1.0000
  C   C182      1.0  0.26210  0.43830  0.72600  1.0000
  C   C183      1.0  0.23790  0.93830  0.77400  1.0000
  C   C184      1.0  0.76210  0.93830  0.72600  1.0000
  H   H129      1.0  0.24790  0.59220  0.21350  1.0000
  H   H130      1.0  0.75210  0.59220  0.28650  1.0000
  H   H131      1.0  0.74790  0.09220  0.21350  1.0000
  H   H132      1.0  0.25210  0.09220  0.28650  1.0000
  H   H133      1.0  0.75210  0.40780  0.78650  1.0000
  H   H134      1.0  0.24790  0.40780  0.71350  1.0000
  H   H135      1.0  0.25210  0.90780  0.78650  1.0000
  H   H136      1.0  0.74790  0.90780  0.71350  1.0000
  C   C185      1.0  0.29540  0.56470  0.21820  1.0000
  C   C186      1.0  0.70460  0.56470  0.28180  1.0000
  C   C187      1.0  0.79540  0.06470  0.21820  1.0000
  C   C188      1.0  0.20460  0.06470  0.28180  1.0000
  C   C189      1.0  0.70460  0.43530  0.78180  1.0000
  C   C190      1.0  0.29540  0.43530  0.71820  1.0000
  C   C191      1.0  0.20460  0.93530  0.78180  1.0000
  C   C192      1.0  0.79540  0.93530  0.71820  1.0000
  H   H137      1.0  0.30380  0.59810  0.20120  1.0000
  H   H138      1.0  0.69620  0.59810  0.29880  1.0000
  H   H139      1.0  0.80380  0.09810  0.20120  1.0000
  H   H140      1.0  0.19620  0.09810  0.29880  1.0000
  H   H141      1.0  0.69620  0.40190  0.79880  1.0000
  H   H142      1.0  0.30380  0.40190  0.70120  1.0000
  H   H143      1.0  0.19620  0.90190  0.79880  1.0000
  H   H144      1.0  0.80380  0.90190  0.70120  1.0000
  C   C193      1.0  0.31490  0.52090  0.23460  1.0000
  C   C194      1.0  0.68510  0.52090  0.26540  1.0000
  C   C195      1.0  0.81490  0.02090  0.23460  1.0000
  C   C196      1.0  0.18510  0.02090  0.26540  1.0000
  C   C197      1.0  0.68510  0.47910  0.76540  1.0000
  C   C198      1.0  0.31490  0.47910  0.73460  1.0000
  C   C199      1.0  0.18510  0.97910  0.76540  1.0000
  C   C200      1.0  0.81490  0.97910  0.73460  1.0000
  H   H145      1.0  0.33730  0.52480  0.22990  1.0000
  H   H146      1.0  0.66270  0.52480  0.27010  1.0000
  H   H147      1.0  0.83730  0.02480  0.22990  1.0000
  H   H148      1.0  0.16270  0.02480  0.27010  1.0000
  H   H149      1.0  0.66270  0.47520  0.77010  1.0000
  H   H150      1.0  0.33730  0.47520  0.72990  1.0000
  H   H151      1.0  0.16270  0.97520  0.77010  1.0000
  H   H152      1.0  0.83730  0.97520  0.72990  1.0000
  C   C201      1.0  0.30450  0.47180  0.25730  1.0000
  C   C202      1.0  0.69550  0.47180  0.24270  1.0000
  C   C203      1.0  0.80450  0.97180  0.25730  1.0000
  C   C204      1.0  0.19550  0.97180  0.24270  1.0000
  C   C205      1.0  0.69550  0.52820  0.74270  1.0000
  C   C206      1.0  0.30450  0.52820  0.75730  1.0000
  C   C207      1.0  0.19550  0.02820  0.74270  1.0000
  C   C208      1.0  0.80450  0.02820  0.75730  1.0000
  H   H153      1.0  0.31920  0.44060  0.26700  1.0000
  H   H154      1.0  0.68080  0.44060  0.23300  1.0000
  H   H155      1.0  0.81920  0.94060  0.26700  1.0000
  H   H156      1.0  0.18080  0.94060  0.23300  1.0000
  H   H157      1.0  0.68080  0.55940  0.73300  1.0000
  H   H158      1.0  0.31920  0.55940  0.76700  1.0000
  H   H159      1.0  0.18080  0.05940  0.73300  1.0000
  H   H160      1.0  0.81920  0.05940  0.76700  1.0000
  C   C209      1.0  0.25820  0.41170  0.29090  1.0000
  C   C210      1.0  0.74180  0.41170  0.20910  1.0000
  C   C211      1.0  0.75820  0.91170  0.29090  1.0000
  C   C212      1.0  0.24180  0.91170  0.20910  1.0000
  C   C213      1.0  0.74180  0.58830  0.70910  1.0000
  C   C214      1.0  0.25820  0.58830  0.79090  1.0000
  C   C215      1.0  0.24180  0.08830  0.70910  1.0000
  C   C216      1.0  0.75820  0.08830  0.79090  1.0000
  H   H161      1.0  0.27240  0.37670  0.28510  1.0000
  H   H162      1.0  0.72760  0.37670  0.21490  1.0000
  H   H163      1.0  0.77240  0.87670  0.28510  1.0000
  H   H164      1.0  0.22760  0.87670  0.21490  1.0000
  H   H165      1.0  0.72760  0.62330  0.71490  1.0000
  H   H166      1.0  0.27240  0.62330  0.78510  1.0000
  H   H167      1.0  0.22760  0.12330  0.71490  1.0000
  H   H168      1.0  0.77240  0.12330  0.78510  1.0000
  H   H169      1.0  0.23670  0.40210  0.27630  1.0000
  H   H170      1.0  0.76330  0.40210  0.22370  1.0000
  H   H171      1.0  0.73670  0.90210  0.27630  1.0000
  H   H172      1.0  0.26330  0.90210  0.22370  1.0000
  H   H173      1.0  0.76330  0.59790  0.72370  1.0000
  H   H174      1.0  0.23670  0.59790  0.77630  1.0000
  H   H175      1.0  0.26330  0.09790  0.72370  1.0000
  H   H176      1.0  0.73670  0.09790  0.77630  1.0000
  C   C217      1.0  0.25520  0.42000  0.34570  1.0000
  C   C218      1.0  0.74480  0.42000  0.15430  1.0000
  C   C219      1.0  0.75520  0.92000  0.34570  1.0000
  C   C220      1.0  0.24480  0.92000  0.15430  1.0000
  C   C221      1.0  0.74480  0.58000  0.65430  1.0000
  C   C222      1.0  0.25520  0.58000  0.84570  1.0000
  C   C223      1.0  0.24480  0.08000  0.65430  1.0000
  C   C224      1.0  0.75520  0.08000  0.84570  1.0000
  C   C225      1.0  0.21520  0.51440  0.26370  1.0000
  C   C226      1.0  0.78480  0.51440  0.23630  1.0000
  C   C227      1.0  0.71520  0.01440  0.26370  1.0000
  C   C228      1.0  0.28480  0.01440  0.23630  1.0000
  C   C229      1.0  0.78480  0.48560  0.73630  1.0000
  C   C230      1.0  0.21520  0.48560  0.76370  1.0000
  C   C231      1.0  0.28480  0.98560  0.73630  1.0000
  C   C232      1.0  0.71520  0.98560  0.76370  1.0000
  H   H177      1.0  0.20800  0.55730  0.26530  1.0000
  H   H178      1.0  0.79200  0.55730  0.23470  1.0000
  H   H179      1.0  0.70800  0.05730  0.26530  1.0000
  H   H180      1.0  0.29200  0.05730  0.23470  1.0000
  H   H181      1.0  0.79200  0.44270  0.73470  1.0000
  H   H182      1.0  0.20800  0.44270  0.76530  1.0000
  H   H183      1.0  0.29200  0.94270  0.73470  1.0000
  H   H184      1.0  0.70800  0.94270  0.76530  1.0000
  H   H185      1.0  0.21240  0.49570  0.29540  1.0000
  H   H186      1.0  0.78760  0.49570  0.20460  1.0000
  H   H187      1.0  0.71240  0.99570  0.29540  1.0000
  H   H188      1.0  0.28760  0.99570  0.20460  1.0000
  H   H189      1.0  0.78760  0.50430  0.70460  1.0000
  H   H190      1.0  0.21240  0.50430  0.79540  1.0000
  H   H191      1.0  0.28760  0.00430  0.70460  1.0000
  H   H192      1.0  0.71240  0.00430  0.79540  1.0000
  C   C233      1.0  0.19410  0.48090  0.22650  1.0000
  C   C234      1.0  0.80590  0.48090  0.27350  1.0000
  C   C235      1.0  0.69410  0.98090  0.22650  1.0000
  C   C236      1.0  0.30590  0.98090  0.27350  1.0000
  C   C237      1.0  0.80590  0.51910  0.77350  1.0000
  C   C238      1.0  0.19410  0.51910  0.72650  1.0000
  C   C239      1.0  0.30590  0.01910  0.77350  1.0000
  C   C240      1.0  0.69410  0.01910  0.72650  1.0000
  C   C241      1.0  0.43830  0.30140  0.50870  1.0000
  C   C242      1.0  0.56170  0.30140  0.99130  1.0000
  C   C243      1.0  0.93830  0.80140  0.50870  1.0000
  C   C244      1.0  0.06170  0.80140  0.99130  1.0000
  C   C245      1.0  0.56170  0.69860  0.49130  1.0000
  C   C246      1.0  0.43830  0.69860  0.00870  1.0000
  C   C247      1.0  0.06170  0.19860  0.49130  1.0000
  C   C248      1.0  0.93830  0.19860  0.00870  1.0000
  C   C249      1.0  0.42720  0.27800  0.46370  1.0000
  C   C250      1.0  0.57280  0.27800  0.03630  1.0000
  C   C251      1.0  0.92720  0.77800  0.46370  1.0000
  C   C252      1.0  0.07280  0.77800  0.03630  1.0000
  C   C253      1.0  0.57280  0.72200  0.53630  1.0000
  C   C254      1.0  0.42720  0.72200  0.96370  1.0000
  C   C255      1.0  0.07280  0.22200  0.53630  1.0000
  C   C256      1.0  0.92720  0.22200  0.96370  1.0000
  C   C257      1.0  0.44030  0.30090  0.42380  1.0000
  C   C258      1.0  0.55970  0.30090  0.07620  1.0000
  C   C259      1.0  0.94030  0.80090  0.42380  1.0000
  C   C260      1.0  0.05970  0.80090  0.07620  1.0000
  C   C261      1.0  0.55970  0.69910  0.57620  1.0000
  C   C262      1.0  0.44030  0.69910  0.92380  1.0000
  C   C263      1.0  0.05970  0.19910  0.57620  1.0000
  C   C264      1.0  0.94030  0.19910  0.92380  1.0000
  H   H193      1.0  0.43220  0.28670  0.39360  1.0000
  H   H194      1.0  0.56780  0.28670  0.10640  1.0000
  H   H195      1.0  0.93220  0.78670  0.39360  1.0000
  H   H196      1.0  0.06780  0.78670  0.10640  1.0000
  H   H197      1.0  0.56780  0.71330  0.60640  1.0000
  H   H198      1.0  0.43220  0.71330  0.89360  1.0000
  H   H199      1.0  0.06780  0.21330  0.60640  1.0000
  H   H200      1.0  0.93220  0.21330  0.89360  1.0000
  C   C265      1.0  0.46370  0.34180  0.42480  1.0000
  C   C266      1.0  0.53630  0.34180  0.07520  1.0000
  C   C267      1.0  0.96370  0.84180  0.42480  1.0000
  C   C268      1.0  0.03630  0.84180  0.07520  1.0000
  C   C269      1.0  0.53630  0.65820  0.57520  1.0000
  C   C270      1.0  0.46370  0.65820  0.92480  1.0000
  C   C271      1.0  0.03630  0.15820  0.57520  1.0000
  C   C272      1.0  0.96370  0.15820  0.92480  1.0000
  H   H201      1.0  0.47230  0.35520  0.39590  1.0000
  H   H202      1.0  0.52770  0.35520  0.10410  1.0000
  H   H203      1.0  0.97230  0.85520  0.39590  1.0000
  H   H204      1.0  0.02770  0.85520  0.10410  1.0000
  H   H205      1.0  0.52770  0.64480  0.60410  1.0000
  H   H206      1.0  0.47230  0.64480  0.89590  1.0000
  H   H207      1.0  0.02770  0.14480  0.60410  1.0000
  H   H208      1.0  0.97230  0.14480  0.89590  1.0000
  C   C273      1.0  0.47570  0.36510  0.46820  1.0000
  C   C274      1.0  0.52430  0.36510  0.03180  1.0000
  C   C275      1.0  0.97570  0.86510  0.46820  1.0000
  C   C276      1.0  0.02430  0.86510  0.03180  1.0000
  C   C277      1.0  0.52430  0.63490  0.53180  1.0000
  C   C278      1.0  0.47570  0.63490  0.96820  1.0000
  C   C279      1.0  0.02430  0.13490  0.53180  1.0000
  C   C280      1.0  0.97570  0.13490  0.96820  1.0000
  H   H209      1.0  0.49200  0.39540  0.46840  1.0000
  H   H210      1.0  0.50800  0.39540  0.03160  1.0000
  H   H211      1.0  0.99200  0.89540  0.46840  1.0000
  H   H212      1.0  0.00800  0.89540  0.03160  1.0000
  H   H213      1.0  0.50800  0.60460  0.53160  1.0000
  H   H214      1.0  0.49200  0.60460  0.96840  1.0000
  H   H215      1.0  0.00800  0.10460  0.53160  1.0000
  H   H216      1.0  0.99200  0.10460  0.96840  1.0000
  C   C281      1.0  0.46380  0.34410  0.51290  1.0000
  C   C282      1.0  0.53620  0.34410  0.98710  1.0000
  C   C283      1.0  0.96380  0.84410  0.51290  1.0000
  C   C284      1.0  0.03620  0.84410  0.98710  1.0000
  C   C285      1.0  0.53620  0.65590  0.48710  1.0000
  C   C286      1.0  0.46380  0.65590  0.01290  1.0000
  C   C287      1.0  0.03620  0.15590  0.48710  1.0000
  C   C288      1.0  0.96380  0.15590  0.01290  1.0000
  H   H217      1.0  0.47240  0.35780  0.54290  1.0000
  H   H218      1.0  0.52760  0.35780  0.95710  1.0000
  H   H219      1.0  0.97240  0.85780  0.54290  1.0000
  H   H220      1.0  0.02760  0.85780  0.95710  1.0000
  H   H221      1.0  0.52760  0.64220  0.45710  1.0000
  H   H222      1.0  0.47240  0.64220  0.04290  1.0000
  H   H223      1.0  0.02760  0.14220  0.45710  1.0000
  H   H224      1.0  0.97240  0.14220  0.04290  1.0000
  C   C289      1.0  0.42370  0.28010  0.55490  1.0000
  C   C290      1.0  0.57630  0.28010  0.94510  1.0000
  C   C291      1.0  0.92370  0.78010  0.55490  1.0000
  C   C292      1.0  0.07630  0.78010  0.94510  1.0000
  C   C293      1.0  0.57630  0.71990  0.44510  1.0000
  C   C294      1.0  0.42370  0.71990  0.05490  1.0000
  C   C295      1.0  0.07630  0.21990  0.44510  1.0000
  C   C296      1.0  0.92370  0.21990  0.05490  1.0000
  H   H225      1.0  0.41960  0.23580  0.55300  1.0000
  H   H226      1.0  0.58040  0.23580  0.94700  1.0000
  H   H227      1.0  0.91960  0.73580  0.55300  1.0000
  H   H228      1.0  0.08040  0.73580  0.94700  1.0000
  H   H229      1.0  0.58040  0.76420  0.44700  1.0000
  H   H230      1.0  0.41960  0.76420  0.05300  1.0000
  H   H231      1.0  0.08040  0.26420  0.44700  1.0000
  H   H232      1.0  0.91960  0.26420  0.05300  1.0000
  H   H233      1.0  0.43920  0.28760  0.58200  1.0000
  H   H234      1.0  0.56080  0.28760  0.91800  1.0000
  H   H235      1.0  0.93920  0.78760  0.58200  1.0000
  H   H236      1.0  0.06080  0.78760  0.91800  1.0000
  H   H237      1.0  0.56080  0.71240  0.41800  1.0000
  H   H238      1.0  0.43920  0.71240  0.08200  1.0000
  H   H239      1.0  0.06080  0.21240  0.41800  1.0000
  H   H240      1.0  0.93920  0.21240  0.08200  1.0000
  C   C297      1.0  0.39250  0.31320  0.56350  1.0000
  C   C298      1.0  0.60750  0.31320  0.93650  1.0000
  C   C299      1.0  0.89250  0.81320  0.56350  1.0000
  C   C300      1.0  0.10750  0.81320  0.93650  1.0000
  C   C301      1.0  0.60750  0.68680  0.43650  1.0000
  C   C302      1.0  0.39250  0.68680  0.06350  1.0000
  C   C303      1.0  0.10750  0.18680  0.43650  1.0000
  C   C304      1.0  0.89250  0.18680  0.06350  1.0000
  C   C305      1.0  0.40030  0.23320  0.45970  1.0000
  C   C306      1.0  0.59970  0.23320  0.04030  1.0000
  C   C307      1.0  0.90030  0.73320  0.45970  1.0000
  C   C308      1.0  0.09970  0.73320  0.04030  1.0000
  C   C309      1.0  0.59970  0.76680  0.54030  1.0000
  C   C310      1.0  0.40030  0.76680  0.95970  1.0000
  C   C311      1.0  0.09970  0.26680  0.54030  1.0000
  C   C312      1.0  0.90030  0.26680  0.95970  1.0000
  H   H241      1.0  0.39010  0.23570  0.42720  1.0000
  H   H242      1.0  0.60990  0.23570  0.07280  1.0000
  H   H243      1.0  0.89010  0.73570  0.42720  1.0000
  H   H244      1.0  0.10990  0.73570  0.07280  1.0000
  H   H245      1.0  0.60990  0.76430  0.57280  1.0000
  H   H246      1.0  0.39010  0.76430  0.92720  1.0000
  H   H247      1.0  0.10990  0.26430  0.57280  1.0000
  H   H248      1.0  0.89010  0.26430  0.92720  1.0000
  H   H249      1.0  0.38390  0.24470  0.48260  1.0000
  H   H250      1.0  0.61610  0.24470  0.01740  1.0000
  H   H251      1.0  0.88390  0.74470  0.48260  1.0000
  H   H252      1.0  0.11610  0.74470  0.01740  1.0000
  H   H253      1.0  0.61610  0.75530  0.51740  1.0000
  H   H254      1.0  0.38390  0.75530  0.98260  1.0000
  H   H255      1.0  0.11610  0.25530  0.51740  1.0000
  H   H256      1.0  0.88390  0.25530  0.98260  1.0000
  C   C313      1.0  0.41050  0.16790  0.46940  1.0000
  C   C314      1.0  0.58950  0.16790  0.03060  1.0000
  C   C315      1.0  0.91050  0.66790  0.46940  1.0000
  C   C316      1.0  0.08950  0.66790  0.03060  1.0000
  C   C317      1.0  0.58950  0.83210  0.53060  1.0000
  C   C318      1.0  0.41050  0.83210  0.96940  1.0000
  C   C319      1.0  0.08950  0.33210  0.53060  1.0000
  C   C320      1.0  0.91050  0.33210  0.96940  1.0000
  C   C321      1.0  0.34960  0.88510  0.56560  1.0000
  C   C322      1.0  0.65040  0.88510  0.93440  1.0000
  C   C323      1.0  0.84960  0.38510  0.56560  1.0000
  C   C324      1.0  0.15040  0.38510  0.93440  1.0000
  C   C325      1.0  0.65040  0.11490  0.43440  1.0000
  C   C326      1.0  0.34960  0.11490  0.06560  1.0000
  C   C327      1.0  0.15040  0.61490  0.43440  1.0000
  C   C328      1.0  0.84960  0.61490  0.06560  1.0000
  C   C329      1.0  0.32880  0.87690  0.52500  1.0000
  C   C330      1.0  0.67120  0.87690  0.97500  1.0000
  C   C331      1.0  0.82880  0.37690  0.52500  1.0000
  C   C332      1.0  0.17120  0.37690  0.97500  1.0000
  C   C333      1.0  0.67120  0.12310  0.47500  1.0000
  C   C334      1.0  0.32880  0.12310  0.02500  1.0000
  C   C335      1.0  0.17120  0.62310  0.47500  1.0000
  C   C336      1.0  0.82880  0.62310  0.02500  1.0000
  C   C337      1.0  0.31970  0.81920  0.51250  1.0000
  C   C338      1.0  0.68030  0.81920  0.98750  1.0000
  C   C339      1.0  0.81970  0.31920  0.51250  1.0000
  C   C340      1.0  0.18030  0.31920  0.98750  1.0000
  C   C341      1.0  0.68030  0.18080  0.48750  1.0000
  C   C342      1.0  0.31970  0.18080  0.01250  1.0000
  C   C343      1.0  0.18030  0.68080  0.48750  1.0000
  C   C344      1.0  0.81970  0.68080  0.01250  1.0000
  H   H257      1.0  0.30550  0.81330  0.48540  1.0000
  H   H258      1.0  0.69450  0.81330  0.01460  1.0000
  H   H259      1.0  0.80550  0.31330  0.48540  1.0000
  H   H260      1.0  0.19450  0.31330  0.01460  1.0000
  H   H261      1.0  0.69450  0.18670  0.51460  1.0000
  H   H262      1.0  0.30550  0.18670  0.98540  1.0000
  H   H263      1.0  0.19450  0.68670  0.51460  1.0000
  H   H264      1.0  0.80550  0.68670  0.98540  1.0000
  C   C345      1.0  0.33070  0.76870  0.53850  1.0000
  C   C346      1.0  0.66930  0.76870  0.96150  1.0000
  C   C347      1.0  0.83070  0.26870  0.53850  1.0000
  C   C348      1.0  0.16930  0.26870  0.96150  1.0000
  C   C349      1.0  0.66930  0.23130  0.46150  1.0000
  C   C350      1.0  0.33070  0.23130  0.03850  1.0000
  C   C351      1.0  0.16930  0.73130  0.46150  1.0000
  C   C352      1.0  0.83070  0.73130  0.03850  1.0000
  H   H265      1.0  0.32350  0.72950  0.52870  1.0000
  H   H266      1.0  0.67650  0.72950  0.97130  1.0000
  H   H267      1.0  0.82350  0.22950  0.52870  1.0000
  H   H268      1.0  0.17650  0.22950  0.97130  1.0000
  H   H269      1.0  0.67650  0.27050  0.47130  1.0000
  H   H270      1.0  0.32350  0.27050  0.02870  1.0000
  H   H271      1.0  0.17650  0.77050  0.47130  1.0000
  H   H272      1.0  0.82350  0.77050  0.02870  1.0000
  C   C353      1.0  0.35080  0.77290  0.57640  1.0000
  C   C354      1.0  0.64920  0.77290  0.92360  1.0000
  C   C355      1.0  0.85080  0.27290  0.57640  1.0000
  C   C356      1.0  0.14920  0.27290  0.92360  1.0000
  C   C357      1.0  0.64920  0.22710  0.42360  1.0000
  C   C358      1.0  0.35080  0.22710  0.07640  1.0000
  C   C359      1.0  0.14920  0.72710  0.42360  1.0000
  C   C360      1.0  0.85080  0.72710  0.07640  1.0000
  H   H273      1.0  0.35880  0.73790  0.59290  1.0000
  H   H274      1.0  0.64120  0.73790  0.90710  1.0000
  H   H275      1.0  0.85880  0.23790  0.59290  1.0000
  H   H276      1.0  0.14120  0.23790  0.90710  1.0000
  H   H277      1.0  0.64120  0.26210  0.40710  1.0000
  H   H278      1.0  0.35880  0.26210  0.09290  1.0000
  H   H279      1.0  0.14120  0.76210  0.40710  1.0000
  H   H280      1.0  0.85880  0.76210  0.09290  1.0000
  C   C361      1.0  0.35950  0.83150  0.59080  1.0000
  C   C362      1.0  0.64050  0.83150  0.90920  1.0000
  C   C363      1.0  0.85950  0.33150  0.59080  1.0000
  C   C364      1.0  0.14050  0.33150  0.90920  1.0000
  C   C365      1.0  0.64050  0.16850  0.40920  1.0000
  C   C366      1.0  0.35950  0.16850  0.09080  1.0000
  C   C367      1.0  0.14050  0.66850  0.40920  1.0000
  C   C368      1.0  0.85950  0.66850  0.09080  1.0000
  H   H281      1.0  0.37280  0.83590  0.61890  1.0000
  H   H282      1.0  0.62720  0.83590  0.88110  1.0000
  H   H283      1.0  0.87280  0.33590  0.61890  1.0000
  H   H284      1.0  0.12720  0.33590  0.88110  1.0000
  H   H285      1.0  0.62720  0.16410  0.38110  1.0000
  H   H286      1.0  0.37280  0.16410  0.11890  1.0000
  H   H287      1.0  0.12720  0.66410  0.38110  1.0000
  H   H288      1.0  0.87280  0.66410  0.11890  1.0000
  C   C369      1.0  0.36160  0.94760  0.58330  1.0000
  C   C370      1.0  0.63840  0.94760  0.91670  1.0000
  C   C371      1.0  0.86160  0.44760  0.58330  1.0000
  C   C372      1.0  0.13840  0.44760  0.91670  1.0000
  C   C373      1.0  0.63840  0.05240  0.41670  1.0000
  C   C374      1.0  0.36160  0.05240  0.08330  1.0000
  C   C375      1.0  0.13840  0.55240  0.41670  1.0000
  C   C376      1.0  0.86160  0.55240  0.08330  1.0000
  H   H289      1.0  0.34290  0.97450  0.58730  1.0000
  H   H290      1.0  0.65710  0.97450  0.91270  1.0000
  H   H291      1.0  0.84290  0.47450  0.58730  1.0000
  H   H292      1.0  0.15710  0.47450  0.91270  1.0000
  H   H293      1.0  0.65710  0.02550  0.41270  1.0000
  H   H294      1.0  0.34290  0.02550  0.08730  1.0000
  H   H295      1.0  0.15710  0.52550  0.41270  1.0000
  H   H296      1.0  0.84290  0.52550  0.08730  1.0000
  H   H297      1.0  0.37280  0.94270  0.61500  1.0000
  H   H298      1.0  0.62720  0.94270  0.88500  1.0000
  H   H299      1.0  0.87280  0.44270  0.61500  1.0000
  H   H300      1.0  0.12720  0.44270  0.88500  1.0000
  H   H301      1.0  0.62720  0.05730  0.38500  1.0000
  H   H302      1.0  0.37280  0.05730  0.11500  1.0000
  H   H303      1.0  0.12720  0.55730  0.38500  1.0000
  H   H304      1.0  0.87280  0.55730  0.11500  1.0000
  C   C377      1.0  0.38390  0.97750  0.55060  1.0000
  C   C378      1.0  0.61610  0.97750  0.94940  1.0000
  C   C379      1.0  0.88390  0.47750  0.55060  1.0000
  C   C380      1.0  0.11610  0.47750  0.94940  1.0000
  C   C381      1.0  0.61610  0.02250  0.44940  1.0000
  C   C382      1.0  0.38390  0.02250  0.05060  1.0000
  C   C383      1.0  0.11610  0.52250  0.44940  1.0000
  C   C384      1.0  0.88390  0.52250  0.05060  1.0000
  C   C385      1.0  0.31770  0.92990  0.49420  1.0000
  C   C386      1.0  0.68230  0.92990  0.00580  1.0000
  C   C387      1.0  0.81770  0.42990  0.49420  1.0000
  C   C388      1.0  0.18230  0.42990  0.00580  1.0000
  C   C389      1.0  0.68230  0.07010  0.50580  1.0000
  C   C390      1.0  0.31770  0.07010  0.99420  1.0000
  C   C391      1.0  0.18230  0.57010  0.50580  1.0000
  C   C392      1.0  0.81770  0.57010  0.99420  1.0000
  H   H305      1.0  0.29390  0.93180  0.49380  1.0000
  H   H306      1.0  0.70610  0.93180  0.00620  1.0000
  H   H307      1.0  0.79390  0.43180  0.49380  1.0000
  H   H308      1.0  0.20610  0.43180  0.00620  1.0000
  H   H309      1.0  0.70610  0.06820  0.50620  1.0000
  H   H310      1.0  0.29390  0.06820  0.99380  1.0000
  H   H311      1.0  0.20610  0.56820  0.50620  1.0000
  H   H312      1.0  0.79390  0.56820  0.99380  1.0000
  H   H313      1.0  0.32600  0.96800  0.50910  1.0000
  H   H314      1.0  0.67400  0.96800  0.99090  1.0000
  H   H315      1.0  0.82600  0.46800  0.50910  1.0000
  H   H316      1.0  0.17400  0.46800  0.99090  1.0000
  H   H317      1.0  0.67400  0.03200  0.49090  1.0000
  H   H318      1.0  0.32600  0.03200  0.00910  1.0000
  H   H319      1.0  0.17400  0.53200  0.49090  1.0000
  H   H320      1.0  0.82600  0.53200  0.00910  1.0000
  C   C393      1.0  0.32800  0.92760  0.44380  1.0000
  C   C394      1.0  0.67200  0.92760  0.05620  1.0000
  C   C395      1.0  0.82800  0.42760  0.44380  1.0000
  C   C396      1.0  0.17200  0.42760  0.05620  1.0000
  C   C397      1.0  0.67200  0.07240  0.55620  1.0000
  C   C398      1.0  0.32800  0.07240  0.94380  1.0000
  C   C399      1.0  0.17200  0.57240  0.55620  1.0000
  C   C400      1.0  0.82800  0.57240  0.94380  1.0000
  C   C401      1.0  0.47200  0.87160  0.38390  1.0000
  C   C402      1.0  0.52800  0.87160  0.11610  1.0000
  C   C403      1.0  0.97200  0.37160  0.38390  1.0000
  C   C404      1.0  0.02800  0.37160  0.11610  1.0000
  C   C405      1.0  0.52800  0.12840  0.61610  1.0000
  C   C406      1.0  0.47200  0.12840  0.88390  1.0000
  C   C407      1.0  0.02800  0.62840  0.61610  1.0000
  C   C408      1.0  0.97200  0.62840  0.88390  1.0000
  C   C409      1.0  0.45660  0.82130  0.36210  1.0000
  C   C410      1.0  0.54340  0.82130  0.13790  1.0000
  C   C411      1.0  0.95660  0.32130  0.36210  1.0000
  C   C412      1.0  0.04340  0.32130  0.13790  1.0000
  C   C413      1.0  0.54340  0.17870  0.63790  1.0000
  C   C414      1.0  0.45660  0.17870  0.86210  1.0000
  C   C415      1.0  0.04340  0.67870  0.63790  1.0000
  C   C416      1.0  0.95660  0.67870  0.86210  1.0000
  C   C417      1.0  0.46360  0.76470  0.38010  1.0000
  C   C418      1.0  0.53640  0.76470  0.11990  1.0000
  C   C419      1.0  0.96360  0.26470  0.38010  1.0000
  C   C420      1.0  0.03640  0.26470  0.11990  1.0000
  C   C421      1.0  0.53640  0.23530  0.61990  1.0000
  C   C422      1.0  0.46360  0.23530  0.88010  1.0000
  C   C423      1.0  0.03640  0.73530  0.61990  1.0000
  C   C424      1.0  0.96360  0.73530  0.88010  1.0000
  H   H321      1.0  0.45320  0.73010  0.36630  1.0000
  H   H322      1.0  0.54680  0.73010  0.13370  1.0000
  H   H323      1.0  0.95320  0.23010  0.36630  1.0000
  H   H324      1.0  0.04680  0.23010  0.13370  1.0000
  H   H325      1.0  0.54680  0.26990  0.63370  1.0000
  H   H326      1.0  0.45320  0.26990  0.86630  1.0000
  H   H327      1.0  0.04680  0.76990  0.63370  1.0000
  H   H328      1.0  0.95320  0.76990  0.86630  1.0000
  C   C425      1.0  0.48620  0.75670  0.41930  1.0000
  C   C426      1.0  0.51380  0.75670  0.08070  1.0000
  C   C427      1.0  0.98620  0.25670  0.41930  1.0000
  C   C428      1.0  0.01380  0.25670  0.08070  1.0000
  C   C429      1.0  0.51380  0.24330  0.58070  1.0000
  C   C430      1.0  0.48620  0.24330  0.91930  1.0000
  C   C431      1.0  0.01380  0.74330  0.58070  1.0000
  C   C432      1.0  0.98620  0.74330  0.91930  1.0000
  H   H329      1.0  0.49060  0.71750  0.43220  1.0000
  H   H330      1.0  0.50940  0.71750  0.06780  1.0000
  H   H331      1.0  0.99060  0.21750  0.43220  1.0000
  H   H332      1.0  0.00940  0.21750  0.06780  1.0000
  H   H333      1.0  0.50940  0.28250  0.56780  1.0000
  H   H334      1.0  0.49060  0.28250  0.93220  1.0000
  H   H335      1.0  0.00940  0.78250  0.56780  1.0000
  H   H336      1.0  0.99060  0.78250  0.93220  1.0000
  C   C433      1.0  0.50120  0.80680  0.43760  1.0000
  C   C434      1.0  0.49880  0.80680  0.06240  1.0000
  C   C435      1.0  0.00120  0.30680  0.43760  1.0000
  C   C436      1.0  0.99880  0.30680  0.06240  1.0000
  C   C437      1.0  0.49880  0.19320  0.56240  1.0000
  C   C438      1.0  0.50120  0.19320  0.93760  1.0000
  C   C439      1.0  0.99880  0.69320  0.56240  1.0000
  C   C440      1.0  0.00120  0.69320  0.93760  1.0000
  H   H337      1.0  0.51700  0.80260  0.46280  1.0000
  H   H338      1.0  0.48300  0.80260  0.03720  1.0000
  H   H339      1.0  0.01700  0.30260  0.46280  1.0000
  H   H340      1.0  0.98300  0.30260  0.03720  1.0000
  H   H341      1.0  0.48300  0.19740  0.53720  1.0000
  H   H342      1.0  0.51700  0.19740  0.96280  1.0000
  H   H343      1.0  0.98300  0.69740  0.53720  1.0000
  H   H344      1.0  0.01700  0.69740  0.96280  1.0000
  C   C441      1.0  0.49400  0.86270  0.42020  1.0000
  C   C442      1.0  0.50600  0.86270  0.07980  1.0000
  C   C443      1.0  0.99400  0.36270  0.42020  1.0000
  C   C444      1.0  0.00600  0.36270  0.07980  1.0000
  C   C445      1.0  0.50600  0.13730  0.57980  1.0000
  C   C446      1.0  0.49400  0.13730  0.92020  1.0000
  C   C447      1.0  0.00600  0.63730  0.57980  1.0000
  C   C448      1.0  0.99400  0.63730  0.92020  1.0000
  H   H345      1.0  0.50470  0.89700  0.43410  1.0000
  H   H346      1.0  0.49530  0.89700  0.06590  1.0000
  H   H347      1.0  0.00470  0.39700  0.43410  1.0000
  H   H348      1.0  0.99530  0.39700  0.06590  1.0000
  H   H349      1.0  0.49530  0.10300  0.56590  1.0000
  H   H350      1.0  0.50470  0.10300  0.93410  1.0000
  H   H351      1.0  0.99530  0.60300  0.56590  1.0000
  H   H352      1.0  0.00470  0.60300  0.93410  1.0000
  C   C449      1.0  0.46360  0.93730  0.36650  1.0000
  C   C450      1.0  0.53640  0.93730  0.13350  1.0000
  C   C451      1.0  0.96360  0.43730  0.36650  1.0000
  C   C452      1.0  0.03640  0.43730  0.13350  1.0000
  C   C453      1.0  0.53640  0.06270  0.63350  1.0000
  C   C454      1.0  0.46360  0.06270  0.86650  1.0000
  C   C455      1.0  0.03640  0.56270  0.63350  1.0000
  C   C456      1.0  0.96360  0.56270  0.86650  1.0000
  H   H353      1.0  0.48360  0.95840  0.35810  1.0000
  H   H354      1.0  0.51640  0.95840  0.14190  1.0000
  H   H355      1.0  0.98360  0.45840  0.35810  1.0000
  H   H356      1.0  0.01640  0.45840  0.14190  1.0000
  H   H357      1.0  0.51640  0.04160  0.64190  1.0000
  H   H358      1.0  0.48360  0.04160  0.85810  1.0000
  H   H359      1.0  0.01640  0.54160  0.64190  1.0000
  H   H360      1.0  0.98360  0.54160  0.85810  1.0000
  H   H361      1.0  0.44930  0.93510  0.33740  1.0000
  H   H362      1.0  0.55070  0.93510  0.16260  1.0000
  H   H363      1.0  0.94930  0.43510  0.33740  1.0000
  H   H364      1.0  0.05070  0.43510  0.16260  1.0000
  H   H365      1.0  0.55070  0.06490  0.66260  1.0000
  H   H366      1.0  0.44930  0.06490  0.83740  1.0000
  H   H367      1.0  0.05070  0.56490  0.66260  1.0000
  H   H368      1.0  0.94930  0.56490  0.83740  1.0000
  C   C457      1.0  0.44730  0.97350  0.40420  1.0000
  C   C458      1.0  0.55270  0.97350  0.09580  1.0000
  C   C459      1.0  0.94730  0.47350  0.40420  1.0000
  C   C460      1.0  0.05270  0.47350  0.09580  1.0000
  C   C461      1.0  0.55270  0.02650  0.59580  1.0000
  C   C462      1.0  0.44730  0.02650  0.90420  1.0000
  C   C463      1.0  0.05270  0.52650  0.59580  1.0000
  C   C464      1.0  0.94730  0.52650  0.90420  1.0000
  C   C465      1.0  0.43410  0.82690  0.31900  1.0000
  C   C466      1.0  0.56590  0.82690  0.18100  1.0000
  C   C467      1.0  0.93410  0.32690  0.31900  1.0000
  C   C468      1.0  0.06590  0.32690  0.18100  1.0000
  C   C469      1.0  0.56590  0.17310  0.68100  1.0000
  C   C470      1.0  0.43410  0.17310  0.81900  1.0000
  C   C471      1.0  0.06590  0.67310  0.68100  1.0000
  C   C472      1.0  0.93410  0.67310  0.81900  1.0000
  H   H369      1.0  0.43040  0.78570  0.30550  1.0000
  H   H370      1.0  0.56960  0.78570  0.19450  1.0000
  H   H371      1.0  0.93040  0.28570  0.30550  1.0000
  H   H372      1.0  0.06960  0.28570  0.19450  1.0000
  H   H373      1.0  0.56960  0.21430  0.69450  1.0000
  H   H374      1.0  0.43040  0.21430  0.80550  1.0000
  H   H375      1.0  0.06960  0.71430  0.69450  1.0000
  H   H376      1.0  0.93040  0.71430  0.80550  1.0000
  H   H377      1.0  0.44490  0.85130  0.29470  1.0000
  H   H378      1.0  0.55510  0.85130  0.20530  1.0000
  H   H379      1.0  0.94490  0.35130  0.29470  1.0000
  H   H380      1.0  0.05510  0.35130  0.20530  1.0000
  H   H381      1.0  0.55510  0.14870  0.70530  1.0000
  H   H382      1.0  0.44490  0.14870  0.79470  1.0000
  H   H383      1.0  0.05510  0.64870  0.70530  1.0000
  H   H384      1.0  0.94490  0.64870  0.79470  1.0000
  C   C473      1.0  0.40190  0.85530  0.32740  1.0000
  C   C474      1.0  0.59810  0.85530  0.17260  1.0000
  C   C475      1.0  0.90190  0.35530  0.32740  1.0000
  C   C476      1.0  0.09810  0.35530  0.17260  1.0000
  C   C477      1.0  0.59810  0.14470  0.67260  1.0000
  C   C478      1.0  0.40190  0.14470  0.82740  1.0000
  C   C479      1.0  0.09810  0.64470  0.67260  1.0000
  C   C480      1.0  0.90190  0.64470  0.82740  1.0000
