data_image0
_chemical_formula_structural       C4H16Cd4S8O8N4O24C8O8C8H8O16H8C28H8C8H8C16H8C8H8C8H8N4C8H8
_chemical_formula_sum              "C96 H80 Cd4 S8 O56 N8"
_cell_length_a       20.3392
_cell_length_b       11.6485
_cell_length_c       21.6631
_cell_angle_alpha    90
_cell_angle_beta     91.668
_cell_angle_gamma    90

_space_group_name_H-M_alt    "P 1"
_space_group_IT_number       1

loop_
  _space_group_symop_operation_xyz
  'x, y, z'

loop_
  _atom_site_type_symbol
  _atom_site_label
  _atom_site_symmetry_multiplicity
  _atom_site_fract_x
  _atom_site_fract_y
  _atom_site_fract_z
  _atom_site_occupancy
  C   C1        1.0  0.00000  0.03880  0.75000  1.0000
  C   C2        1.0  0.50000  0.53880  0.75000  1.0000
  C   C3        1.0  0.00000  0.96120  0.25000  1.0000
  C   C4        1.0  0.50000  0.46120  0.25000  1.0000
  H   H1        1.0  0.94540  0.47600  0.64100  1.0000
  H   H2        1.0  0.05460  0.47600  0.85900  1.0000
  H   H3        1.0  0.44540  0.97600  0.64100  1.0000
  H   H4        1.0  0.55460  0.97600  0.85900  1.0000
  H   H5        1.0  0.05460  0.52400  0.35900  1.0000
  H   H6        1.0  0.94540  0.52400  0.14100  1.0000
  H   H7        1.0  0.55460  0.02400  0.35900  1.0000
  H   H8        1.0  0.44540  0.02400  0.14100  1.0000
  H   H9        1.0  0.89110  0.42700  0.66550  1.0000
  H   H10       1.0  0.10890  0.42700  0.83450  1.0000
  H   H11       1.0  0.39110  0.92700  0.66550  1.0000
  H   H12       1.0  0.60890  0.92700  0.83450  1.0000
  H   H13       1.0  0.10890  0.57300  0.33450  1.0000
  H   H14       1.0  0.89110  0.57300  0.16550  1.0000
  H   H15       1.0  0.60890  0.07300  0.33450  1.0000
  H   H16       1.0  0.39110  0.07300  0.16550  1.0000
  Cd  Cd1       1.0  0.00000  0.47258  0.75000  1.0000
  Cd  Cd2       1.0  0.50000  0.97258  0.75000  1.0000
  Cd  Cd3       1.0  0.00000  0.52742  0.25000  1.0000
  Cd  Cd4       1.0  0.50000  0.02742  0.25000  1.0000
  S   S1        1.0  0.72398  0.78913  0.83073  1.0000
  S   S2        1.0  0.27602  0.78913  0.66927  1.0000
  S   S3        1.0  0.22398  0.28913  0.83073  1.0000
  S   S4        1.0  0.77602  0.28913  0.66927  1.0000
  S   S5        1.0  0.27602  0.21087  0.16927  1.0000
  S   S6        1.0  0.72398  0.21087  0.33073  1.0000
  S   S7        1.0  0.77602  0.71087  0.16927  1.0000
  S   S8        1.0  0.22398  0.71087  0.33073  1.0000
  O   O1        1.0  0.92210  0.49470  0.82577  1.0000
  O   O2        1.0  0.07790  0.49470  0.67423  1.0000
  O   O3        1.0  0.42210  0.99470  0.82577  1.0000
  O   O4        1.0  0.57790  0.99470  0.67423  1.0000
  O   O5        1.0  0.07790  0.50530  0.17423  1.0000
  O   O6        1.0  0.92210  0.50530  0.32577  1.0000
  O   O7        1.0  0.57790  0.00530  0.17423  1.0000
  O   O8        1.0  0.42210  0.00530  0.32577  1.0000
  N   N1        1.0  0.00000  0.27810  0.75000  1.0000
  N   N2        1.0  0.50000  0.77810  0.75000  1.0000
  N   N3        1.0  0.00000  0.72190  0.25000  1.0000
  N   N4        1.0  0.50000  0.22190  0.25000  1.0000
  O   O9        1.0  0.91987  0.47900  0.67103  1.0000
  O   O10       1.0  0.08013  0.47900  0.82897  1.0000
  O   O11       1.0  0.41987  0.97900  0.67103  1.0000
  O   O12       1.0  0.58013  0.97900  0.82897  1.0000
  O   O13       1.0  0.08013  0.52100  0.32897  1.0000
  O   O14       1.0  0.91987  0.52100  0.17103  1.0000
  O   O15       1.0  0.58013  0.02100  0.32897  1.0000
  O   O16       1.0  0.41987  0.02100  0.17103  1.0000
  O   O17       1.0  0.70998  0.69320  0.79032  1.0000
  O   O18       1.0  0.29002  0.69320  0.70968  1.0000
  O   O19       1.0  0.20998  0.19320  0.79032  1.0000
  O   O20       1.0  0.79002  0.19320  0.70968  1.0000
  O   O21       1.0  0.29002  0.30680  0.20968  1.0000
  O   O22       1.0  0.70998  0.30680  0.29032  1.0000
  O   O23       1.0  0.79002  0.80680  0.20968  1.0000
  O   O24       1.0  0.20998  0.80680  0.29032  1.0000
  O   O25       1.0  0.66778  0.81150  0.86966  1.0000
  O   O26       1.0  0.33222  0.81150  0.63034  1.0000
  O   O27       1.0  0.16778  0.31150  0.86966  1.0000
  O   O28       1.0  0.83222  0.31150  0.63034  1.0000
  O   O29       1.0  0.33222  0.18850  0.13034  1.0000
  O   O30       1.0  0.66778  0.18850  0.36966  1.0000
  O   O31       1.0  0.83222  0.68850  0.13034  1.0000
  O   O32       1.0  0.16778  0.68850  0.36966  1.0000
  C   C5        1.0  0.93468  0.54540  0.87639  1.0000
  C   C6        1.0  0.06532  0.54540  0.62361  1.0000
  C   C7        1.0  0.43468  0.04540  0.87639  1.0000
  C   C8        1.0  0.56532  0.04540  0.62361  1.0000
  C   C9        1.0  0.06532  0.45460  0.12361  1.0000
  C   C10       1.0  0.93468  0.45460  0.37639  1.0000
  C   C11       1.0  0.56532  0.95460  0.12361  1.0000
  C   C12       1.0  0.43468  0.95460  0.37639  1.0000
  O   O33       1.0  0.98564  0.52880  0.90901  1.0000
  O   O34       1.0  0.01436  0.52880  0.59099  1.0000
  O   O35       1.0  0.48564  0.02880  0.90901  1.0000
  O   O36       1.0  0.51436  0.02880  0.59099  1.0000
  O   O37       1.0  0.01436  0.47120  0.09099  1.0000
  O   O38       1.0  0.98564  0.47120  0.40901  1.0000
  O   O39       1.0  0.51436  0.97120  0.09099  1.0000
  O   O40       1.0  0.48564  0.97120  0.40901  1.0000
  C   C13       1.0  0.94410  0.21890  0.75365  1.0000
  C   C14       1.0  0.05590  0.21890  0.74635  1.0000
  C   C15       1.0  0.44410  0.71890  0.75365  1.0000
  C   C16       1.0  0.55590  0.71890  0.74635  1.0000
  C   C17       1.0  0.05590  0.78110  0.24635  1.0000
  C   C18       1.0  0.94410  0.78110  0.25365  1.0000
  C   C19       1.0  0.55590  0.28110  0.24635  1.0000
  C   C20       1.0  0.44410  0.28110  0.25365  1.0000
  H   H17       1.0  0.90480  0.25930  0.75650  1.0000
  H   H18       1.0  0.09520  0.25930  0.74350  1.0000
  H   H19       1.0  0.40480  0.75930  0.75650  1.0000
  H   H20       1.0  0.59520  0.75930  0.74350  1.0000
  H   H21       1.0  0.09520  0.74070  0.24350  1.0000
  H   H22       1.0  0.90480  0.74070  0.25650  1.0000
  H   H23       1.0  0.59520  0.24070  0.24350  1.0000
  H   H24       1.0  0.40480  0.24070  0.25650  1.0000
  O   O41       1.0  0.74589  0.88810  0.79786  1.0000
  O   O42       1.0  0.25411  0.88810  0.70214  1.0000
  O   O43       1.0  0.24589  0.38810  0.79786  1.0000
  O   O44       1.0  0.75411  0.38810  0.70214  1.0000
  O   O45       1.0  0.25411  0.11190  0.20214  1.0000
  O   O46       1.0  0.74589  0.11190  0.29786  1.0000
  O   O47       1.0  0.75411  0.61190  0.20214  1.0000
  O   O48       1.0  0.24589  0.61190  0.29786  1.0000
  O   O49       1.0  0.94284  0.64910  0.99738  1.0000
  O   O50       1.0  0.05716  0.64910  0.50262  1.0000
  O   O51       1.0  0.44284  0.14910  0.99738  1.0000
  O   O52       1.0  0.55716  0.14910  0.50262  1.0000
  O   O53       1.0  0.05716  0.35090  0.00262  1.0000
  O   O54       1.0  0.94284  0.35090  0.49738  1.0000
  O   O55       1.0  0.55716  0.85090  0.00262  1.0000
  O   O56       1.0  0.44284  0.85090  0.49738  1.0000
  H   H25       1.0  0.96680  0.60240  0.98080  1.0000
  H   H26       1.0  0.03320  0.60240  0.51920  1.0000
  H   H27       1.0  0.46680  0.10240  0.98080  1.0000
  H   H28       1.0  0.53320  0.10240  0.51920  1.0000
  H   H29       1.0  0.03320  0.39760  0.01920  1.0000
  H   H30       1.0  0.96680  0.39760  0.48080  1.0000
  H   H31       1.0  0.53320  0.89760  0.01920  1.0000
  H   H32       1.0  0.46680  0.89760  0.48080  1.0000
  C   C21       1.0  0.78939  0.74560  0.88073  1.0000
  C   C22       1.0  0.21061  0.74560  0.61927  1.0000
  C   C23       1.0  0.28939  0.24560  0.88073  1.0000
  C   C24       1.0  0.71061  0.24560  0.61927  1.0000
  C   C25       1.0  0.21061  0.25440  0.11927  1.0000
  C   C26       1.0  0.78939  0.25440  0.38073  1.0000
  C   C27       1.0  0.71061  0.75440  0.11927  1.0000
  C   C28       1.0  0.28939  0.75440  0.38073  1.0000
  C   C29       1.0  0.89335  0.67870  0.95791  1.0000
  C   C30       1.0  0.10665  0.67870  0.54209  1.0000
  C   C31       1.0  0.39335  0.17870  0.95791  1.0000
  C   C32       1.0  0.60665  0.17870  0.54209  1.0000
  C   C33       1.0  0.10665  0.32130  0.04209  1.0000
  C   C34       1.0  0.89335  0.32130  0.45791  1.0000
  C   C35       1.0  0.60665  0.82130  0.04209  1.0000
  C   C36       1.0  0.39335  0.82130  0.45791  1.0000
  C   C37       1.0  0.00000  0.91070  0.75000  1.0000
  C   C38       1.0  0.50000  0.41070  0.75000  1.0000
  C   C39       1.0  0.00000  0.08930  0.25000  1.0000
  C   C40       1.0  0.50000  0.58930  0.25000  1.0000
  C   C41       1.0  0.94479  0.73000  0.73846  1.0000
  C   C42       1.0  0.05521  0.73000  0.76154  1.0000
  C   C43       1.0  0.44479  0.23000  0.73846  1.0000
  C   C44       1.0  0.55521  0.23000  0.76154  1.0000
  C   C45       1.0  0.05521  0.27000  0.26154  1.0000
  C   C46       1.0  0.94479  0.27000  0.23846  1.0000
  C   C47       1.0  0.55521  0.77000  0.26154  1.0000
  C   C48       1.0  0.44479  0.77000  0.23846  1.0000
  H   H33       1.0  0.90610  0.69000  0.72970  1.0000
  H   H34       1.0  0.09390  0.69000  0.77030  1.0000
  H   H35       1.0  0.40610  0.19000  0.72970  1.0000
  H   H36       1.0  0.59390  0.19000  0.77030  1.0000
  H   H37       1.0  0.09390  0.31000  0.27030  1.0000
  H   H38       1.0  0.90610  0.31000  0.22970  1.0000
  H   H39       1.0  0.59390  0.81000  0.27030  1.0000
  H   H40       1.0  0.40610  0.81000  0.22970  1.0000
  C   C49       1.0  0.94189  0.10070  0.75343  1.0000
  C   C50       1.0  0.05811  0.10070  0.74657  1.0000
  C   C51       1.0  0.44189  0.60070  0.75343  1.0000
  C   C52       1.0  0.55811  0.60070  0.74657  1.0000
  C   C53       1.0  0.05811  0.89930  0.24657  1.0000
  C   C54       1.0  0.94189  0.89930  0.25343  1.0000
  C   C55       1.0  0.55811  0.39930  0.24657  1.0000
  C   C56       1.0  0.44189  0.39930  0.25343  1.0000
  H   H41       1.0  0.90180  0.06270  0.75560  1.0000
  H   H42       1.0  0.09820  0.06270  0.74440  1.0000
  H   H43       1.0  0.40180  0.56270  0.75560  1.0000
  H   H44       1.0  0.59820  0.56270  0.74440  1.0000
  H   H45       1.0  0.09820  0.93730  0.24440  1.0000
  H   H46       1.0  0.90180  0.93730  0.25560  1.0000
  H   H47       1.0  0.59820  0.43730  0.24440  1.0000
  H   H48       1.0  0.40180  0.43730  0.25560  1.0000
  C   C57       1.0  0.88658  0.63130  0.89873  1.0000
  C   C58       1.0  0.11342  0.63130  0.60127  1.0000
  C   C59       1.0  0.38658  0.13130  0.89873  1.0000
  C   C60       1.0  0.61342  0.13130  0.60127  1.0000
  C   C61       1.0  0.11342  0.36870  0.10127  1.0000
  C   C62       1.0  0.88658  0.36870  0.39873  1.0000
  C   C63       1.0  0.61342  0.86870  0.10127  1.0000
  C   C64       1.0  0.38658  0.86870  0.39873  1.0000
  C   C65       1.0  0.83394  0.66580  0.86057  1.0000
  C   C66       1.0  0.16606  0.66580  0.63943  1.0000
  C   C67       1.0  0.33394  0.16580  0.86057  1.0000
  C   C68       1.0  0.66606  0.16580  0.63943  1.0000
  C   C69       1.0  0.16606  0.33420  0.13943  1.0000
  C   C70       1.0  0.83394  0.33420  0.36057  1.0000
  C   C71       1.0  0.66606  0.83420  0.13943  1.0000
  C   C72       1.0  0.33394  0.83420  0.36057  1.0000
  H   H49       1.0  0.82880  0.63470  0.82120  1.0000
  H   H50       1.0  0.17120  0.63470  0.67880  1.0000
  H   H51       1.0  0.32880  0.13470  0.82120  1.0000
  H   H52       1.0  0.67120  0.13470  0.67880  1.0000
  H   H53       1.0  0.17120  0.36530  0.17880  1.0000
  H   H54       1.0  0.82880  0.36530  0.32120  1.0000
  H   H55       1.0  0.67120  0.86530  0.17880  1.0000
  H   H56       1.0  0.32880  0.86530  0.32120  1.0000
  C   C73       1.0  0.79631  0.79200  0.93945  1.0000
  C   C74       1.0  0.20369  0.79200  0.56055  1.0000
  C   C75       1.0  0.29631  0.29200  0.93945  1.0000
  C   C76       1.0  0.70369  0.29200  0.56055  1.0000
  C   C77       1.0  0.20369  0.20800  0.06055  1.0000
  C   C78       1.0  0.79631  0.20800  0.43945  1.0000
  C   C79       1.0  0.70369  0.70800  0.06055  1.0000
  C   C80       1.0  0.29631  0.70800  0.43945  1.0000
  H   H57       1.0  0.76640  0.84630  0.95280  1.0000
  H   H58       1.0  0.23360  0.84630  0.54720  1.0000
  H   H59       1.0  0.26640  0.34630  0.95280  1.0000
  H   H60       1.0  0.73360  0.34630  0.54720  1.0000
  H   H61       1.0  0.23360  0.15370  0.04720  1.0000
  H   H62       1.0  0.76640  0.15370  0.45280  1.0000
  H   H63       1.0  0.73360  0.65370  0.04720  1.0000
  H   H64       1.0  0.26640  0.65370  0.45280  1.0000
  C   C81       1.0  0.84756  0.75760  0.97798  1.0000
  C   C82       1.0  0.15244  0.75760  0.52202  1.0000
  C   C83       1.0  0.34756  0.25760  0.97798  1.0000
  C   C84       1.0  0.65244  0.25760  0.52202  1.0000
  C   C85       1.0  0.15244  0.24240  0.02202  1.0000
  C   C86       1.0  0.84756  0.24240  0.47798  1.0000
  C   C87       1.0  0.65244  0.74240  0.02202  1.0000
  C   C88       1.0  0.34756  0.74240  0.47798  1.0000
  H   H65       1.0  0.85150  0.78740  0.01770  1.0000
  H   H66       1.0  0.14850  0.78740  0.48230  1.0000
  H   H67       1.0  0.35150  0.28740  0.01770  1.0000
  H   H68       1.0  0.64850  0.28740  0.48230  1.0000
  H   H69       1.0  0.14850  0.21260  0.98230  1.0000
  H   H70       1.0  0.85150  0.21260  0.51770  1.0000
  H   H71       1.0  0.64850  0.71260  0.98230  1.0000
  H   H72       1.0  0.35150  0.71260  0.51770  1.0000
  N   N5        1.0  0.00000  0.67010  0.75000  1.0000
  N   N6        1.0  0.50000  0.17010  0.75000  1.0000
  N   N7        1.0  0.00000  0.32990  0.25000  1.0000
  N   N8        1.0  0.50000  0.82990  0.25000  1.0000
  C   C89       1.0  0.94270  0.84820  0.73890  1.0000
  C   C90       1.0  0.05730  0.84820  0.76110  1.0000
  C   C91       1.0  0.44270  0.34820  0.73890  1.0000
  C   C92       1.0  0.55730  0.34820  0.76110  1.0000
  C   C93       1.0  0.05730  0.15180  0.26110  1.0000
  C   C94       1.0  0.94270  0.15180  0.23890  1.0000
  C   C95       1.0  0.55730  0.65180  0.26110  1.0000
  C   C96       1.0  0.44270  0.65180  0.23890  1.0000
  H   H73       1.0  0.90300  0.88610  0.73180  1.0000
  H   H74       1.0  0.09700  0.88610  0.76820  1.0000
  H   H75       1.0  0.40300  0.38610  0.73180  1.0000
  H   H76       1.0  0.59700  0.38610  0.76820  1.0000
  H   H77       1.0  0.09700  0.11390  0.26820  1.0000
  H   H78       1.0  0.90300  0.11390  0.23180  1.0000
  H   H79       1.0  0.59700  0.61390  0.26820  1.0000
  H   H80       1.0  0.40300  0.61390  0.23180  1.0000
