data_image0
_chemical_formula_structural       Cd4O8N4C8O8N4C8H8S8O8C8H8O8C8O8C8O8C8H8O8C20H8C8H8C8H8C8H8C4H24
_chemical_formula_sum              "Cd4 O56 N8 C96 H80 S8"
_cell_length_a       20.329
_cell_length_b       11.645
_cell_length_c       21.606
_cell_angle_alpha    90
_cell_angle_beta     91.508
_cell_angle_gamma    90

_space_group_name_H-M_alt    "P 1"
_space_group_IT_number       1

loop_
  _space_group_symop_operation_xyz
  'x, y, z'

loop_
  _atom_site_type_symbol
  _atom_site_label
  _atom_site_symmetry_multiplicity
  _atom_site_fract_x
  _atom_site_fract_y
  _atom_site_fract_z
  _atom_site_occupancy
  Cd  Cd1       1.0  0.00000  0.97259  0.25000  1.0000
  Cd  Cd2       1.0  0.50000  0.47259  0.25000  1.0000
  Cd  Cd3       1.0  0.00000  0.02741  0.75000  1.0000
  Cd  Cd4       1.0  0.50000  0.52741  0.75000  1.0000
  O   O1        1.0  0.33204  0.31160  0.13070  1.0000
  O   O2        1.0  0.66796  0.31160  0.36930  1.0000
  O   O3        1.0  0.83204  0.81160  0.13070  1.0000
  O   O4        1.0  0.16796  0.81160  0.36930  1.0000
  O   O5        1.0  0.66796  0.68840  0.86930  1.0000
  O   O6        1.0  0.33204  0.68840  0.63070  1.0000
  O   O7        1.0  0.16796  0.18840  0.86930  1.0000
  O   O8        1.0  0.83204  0.18840  0.63070  1.0000
  N   N1        1.0  0.00000  0.77840  0.25000  1.0000
  N   N2        1.0  0.50000  0.27840  0.25000  1.0000
  N   N3        1.0  0.00000  0.22160  0.75000  1.0000
  N   N4        1.0  0.50000  0.72160  0.75000  1.0000
  C   C1        1.0  0.21030  0.24610  0.11942  1.0000
  C   C2        1.0  0.78970  0.24610  0.38058  1.0000
  C   C3        1.0  0.71030  0.74610  0.11942  1.0000
  C   C4        1.0  0.28970  0.74610  0.38058  1.0000
  C   C5        1.0  0.78970  0.75390  0.88058  1.0000
  C   C6        1.0  0.21030  0.75390  0.61942  1.0000
  C   C7        1.0  0.28970  0.25390  0.88058  1.0000
  C   C8        1.0  0.71030  0.25390  0.61942  1.0000
  O   O9        1.0  0.25370  0.38790  0.20199  1.0000
  O   O10       1.0  0.74630  0.38790  0.29801  1.0000
  O   O11       1.0  0.75370  0.88790  0.20199  1.0000
  O   O12       1.0  0.24630  0.88790  0.29801  1.0000
  O   O13       1.0  0.74630  0.61210  0.79801  1.0000
  O   O14       1.0  0.25370  0.61210  0.70199  1.0000
  O   O15       1.0  0.24630  0.11210  0.79801  1.0000
  O   O16       1.0  0.75370  0.11210  0.70199  1.0000
  N   N5        1.0  0.00000  0.16920  0.25000  1.0000
  N   N6        1.0  0.50000  0.66920  0.25000  1.0000
  N   N7        1.0  0.00000  0.83080  0.75000  1.0000
  N   N8        1.0  0.50000  0.33080  0.75000  1.0000
  C   C9        1.0  0.20330  0.29230  0.06020  1.0000
  C   C10       1.0  0.79670  0.29230  0.43980  1.0000
  C   C11       1.0  0.70330  0.79230  0.06020  1.0000
  C   C12       1.0  0.29670  0.79230  0.43980  1.0000
  C   C13       1.0  0.79670  0.70770  0.93980  1.0000
  C   C14       1.0  0.20330  0.70770  0.56020  1.0000
  C   C15       1.0  0.29670  0.20770  0.93980  1.0000
  C   C16       1.0  0.70330  0.20770  0.56020  1.0000
  H   H1        1.0  0.23310  0.34680  0.04670  1.0000
  H   H2        1.0  0.76690  0.34680  0.45330  1.0000
  H   H3        1.0  0.73310  0.84680  0.04670  1.0000
  H   H4        1.0  0.26690  0.84680  0.45330  1.0000
  H   H5        1.0  0.76690  0.65320  0.95330  1.0000
  H   H6        1.0  0.23310  0.65320  0.54670  1.0000
  H   H7        1.0  0.26690  0.15320  0.95330  1.0000
  H   H8        1.0  0.73310  0.15320  0.54670  1.0000
  S   S1        1.0  0.27583  0.28932  0.16939  1.0000
  S   S2        1.0  0.72417  0.28932  0.33061  1.0000
  S   S3        1.0  0.77583  0.78932  0.16939  1.0000
  S   S4        1.0  0.22417  0.78932  0.33061  1.0000
  S   S5        1.0  0.72417  0.71068  0.83061  1.0000
  S   S6        1.0  0.27583  0.71068  0.66939  1.0000
  S   S7        1.0  0.22417  0.21068  0.83061  1.0000
  S   S8        1.0  0.77583  0.21068  0.66939  1.0000
  O   O17       1.0  0.28991  0.19350  0.20990  1.0000
  O   O18       1.0  0.71009  0.19350  0.29010  1.0000
  O   O19       1.0  0.78991  0.69350  0.20990  1.0000
  O   O20       1.0  0.21009  0.69350  0.29010  1.0000
  O   O21       1.0  0.71009  0.80650  0.79010  1.0000
  O   O22       1.0  0.28991  0.80650  0.70990  1.0000
  O   O23       1.0  0.21009  0.30650  0.79010  1.0000
  O   O24       1.0  0.78991  0.30650  0.70990  1.0000
  C   C17       1.0  0.15270  0.25740  0.02190  1.0000
  C   C18       1.0  0.84730  0.25740  0.47810  1.0000
  C   C19       1.0  0.65270  0.75740  0.02190  1.0000
  C   C20       1.0  0.34730  0.75740  0.47810  1.0000
  C   C21       1.0  0.84730  0.74260  0.97810  1.0000
  C   C22       1.0  0.15270  0.74260  0.52190  1.0000
  C   C23       1.0  0.34730  0.24260  0.97810  1.0000
  C   C24       1.0  0.65270  0.24260  0.52190  1.0000
  H   H9        1.0  0.14890  0.28700  0.98200  1.0000
  H   H10       1.0  0.85110  0.28700  0.51800  1.0000
  H   H11       1.0  0.64890  0.78700  0.98200  1.0000
  H   H12       1.0  0.35110  0.78700  0.51800  1.0000
  H   H13       1.0  0.85110  0.71300  0.01800  1.0000
  H   H14       1.0  0.14890  0.71300  0.48200  1.0000
  H   H15       1.0  0.35110  0.21300  0.01800  1.0000
  H   H16       1.0  0.64890  0.21300  0.48200  1.0000
  O   O25       1.0  0.05769  0.14910  0.00228  1.0000
  O   O26       1.0  0.94231  0.14910  0.49772  1.0000
  O   O27       1.0  0.55769  0.64910  0.00228  1.0000
  O   O28       1.0  0.44231  0.64910  0.49772  1.0000
  O   O29       1.0  0.94231  0.85090  0.99772  1.0000
  O   O30       1.0  0.05769  0.85090  0.50228  1.0000
  O   O31       1.0  0.44231  0.35090  0.99772  1.0000
  O   O32       1.0  0.55769  0.35090  0.50228  1.0000
  C   C25       1.0  0.10710  0.17880  0.04189  1.0000
  C   C26       1.0  0.89290  0.17880  0.45811  1.0000
  C   C27       1.0  0.60710  0.67880  0.04189  1.0000
  C   C28       1.0  0.39290  0.67880  0.45811  1.0000
  C   C29       1.0  0.89290  0.82120  0.95811  1.0000
  C   C30       1.0  0.10710  0.82120  0.54189  1.0000
  C   C31       1.0  0.39290  0.32120  0.95811  1.0000
  C   C32       1.0  0.60710  0.32120  0.54189  1.0000
  O   O33       1.0  0.01480  0.02860  0.09103  1.0000
  O   O34       1.0  0.98520  0.02860  0.40897  1.0000
  O   O35       1.0  0.51480  0.52860  0.09103  1.0000
  O   O36       1.0  0.48520  0.52860  0.40897  1.0000
  O   O37       1.0  0.98520  0.97140  0.90897  1.0000
  O   O38       1.0  0.01480  0.97140  0.59103  1.0000
  O   O39       1.0  0.48520  0.47140  0.90897  1.0000
  O   O40       1.0  0.51480  0.47140  0.59103  1.0000
  C   C33       1.0  0.11356  0.13070  0.10139  1.0000
  C   C34       1.0  0.88644  0.13070  0.39861  1.0000
  C   C35       1.0  0.61356  0.63070  0.10139  1.0000
  C   C36       1.0  0.38644  0.63070  0.39861  1.0000
  C   C37       1.0  0.88644  0.86930  0.89861  1.0000
  C   C38       1.0  0.11356  0.86930  0.60139  1.0000
  C   C39       1.0  0.38644  0.36930  0.89861  1.0000
  C   C40       1.0  0.61356  0.36930  0.60139  1.0000
  O   O41       1.0  0.07784  0.99500  0.17430  1.0000
  O   O42       1.0  0.92216  0.99500  0.32570  1.0000
  O   O43       1.0  0.57784  0.49500  0.17430  1.0000
  O   O44       1.0  0.42216  0.49500  0.32570  1.0000
  O   O45       1.0  0.92216  0.00500  0.82570  1.0000
  O   O46       1.0  0.07784  0.00500  0.67430  1.0000
  O   O47       1.0  0.42216  0.50500  0.82570  1.0000
  O   O48       1.0  0.57784  0.50500  0.67430  1.0000
  C   C41       1.0  0.16609  0.16600  0.13941  1.0000
  C   C42       1.0  0.83391  0.16600  0.36059  1.0000
  C   C43       1.0  0.66609  0.66600  0.13941  1.0000
  C   C44       1.0  0.33391  0.66600  0.36059  1.0000
  C   C45       1.0  0.83391  0.83400  0.86059  1.0000
  C   C46       1.0  0.16609  0.83400  0.63941  1.0000
  C   C47       1.0  0.33391  0.33400  0.86059  1.0000
  C   C48       1.0  0.66609  0.33400  0.63941  1.0000
  H   H17       1.0  0.17130  0.13480  0.17890  1.0000
  H   H18       1.0  0.82870  0.13480  0.32110  1.0000
  H   H19       1.0  0.67130  0.63480  0.17890  1.0000
  H   H20       1.0  0.32870  0.63480  0.32110  1.0000
  H   H21       1.0  0.82870  0.86520  0.82110  1.0000
  H   H22       1.0  0.17130  0.86520  0.67890  1.0000
  H   H23       1.0  0.32870  0.36520  0.82110  1.0000
  H   H24       1.0  0.67130  0.36520  0.67890  1.0000
  O   O49       1.0  0.07980  0.97930  0.32910  1.0000
  O   O50       1.0  0.92020  0.97930  0.17090  1.0000
  O   O51       1.0  0.57980  0.47930  0.32910  1.0000
  O   O52       1.0  0.42020  0.47930  0.17090  1.0000
  O   O53       1.0  0.92020  0.02070  0.67090  1.0000
  O   O54       1.0  0.07980  0.02070  0.82910  1.0000
  O   O55       1.0  0.42020  0.52070  0.67090  1.0000
  O   O56       1.0  0.57980  0.52070  0.82910  1.0000
  C   C49       1.0  0.06550  0.04560  0.12350  1.0000
  C   C50       1.0  0.93450  0.04560  0.37650  1.0000
  C   C51       1.0  0.56550  0.54560  0.12350  1.0000
  C   C52       1.0  0.43450  0.54560  0.37650  1.0000
  C   C53       1.0  0.93450  0.95440  0.87650  1.0000
  C   C54       1.0  0.06550  0.95440  0.62350  1.0000
  C   C55       1.0  0.43450  0.45440  0.87650  1.0000
  C   C56       1.0  0.56550  0.45440  0.62350  1.0000
  C   C57       1.0  0.00000  0.53740  0.25000  1.0000
  C   C58       1.0  0.50000  0.03740  0.25000  1.0000
  C   C59       1.0  0.00000  0.46260  0.75000  1.0000
  C   C60       1.0  0.50000  0.96260  0.75000  1.0000
  C   C61       1.0  0.05795  0.60020  0.24643  1.0000
  C   C62       1.0  0.94205  0.60020  0.25357  1.0000
  C   C63       1.0  0.55795  0.10020  0.24643  1.0000
  C   C64       1.0  0.44205  0.10020  0.25357  1.0000
  C   C65       1.0  0.94205  0.39980  0.75357  1.0000
  C   C66       1.0  0.05795  0.39980  0.74643  1.0000
  C   C67       1.0  0.44205  0.89980  0.75357  1.0000
  C   C68       1.0  0.55795  0.89980  0.74643  1.0000
  H   H25       1.0  0.09810  0.56250  0.24410  1.0000
  H   H26       1.0  0.90190  0.56250  0.25590  1.0000
  H   H27       1.0  0.59810  0.06250  0.24410  1.0000
  H   H28       1.0  0.40190  0.06250  0.25590  1.0000
  H   H29       1.0  0.90190  0.43750  0.75590  1.0000
  H   H30       1.0  0.09810  0.43750  0.74410  1.0000
  H   H31       1.0  0.40190  0.93750  0.75590  1.0000
  H   H32       1.0  0.59810  0.93750  0.74410  1.0000
  C   C69       1.0  0.05577  0.71930  0.24635  1.0000
  C   C70       1.0  0.94423  0.71930  0.25365  1.0000
  C   C71       1.0  0.55577  0.21930  0.24635  1.0000
  C   C72       1.0  0.44423  0.21930  0.25365  1.0000
  C   C73       1.0  0.94423  0.28070  0.75365  1.0000
  C   C74       1.0  0.05577  0.28070  0.74635  1.0000
  C   C75       1.0  0.44423  0.78070  0.75365  1.0000
  C   C76       1.0  0.55577  0.78070  0.74635  1.0000
  H   H33       1.0  0.09510  0.75970  0.24360  1.0000
  H   H34       1.0  0.90490  0.75970  0.25640  1.0000
  H   H35       1.0  0.59510  0.25970  0.24360  1.0000
  H   H36       1.0  0.40490  0.25970  0.25640  1.0000
  H   H37       1.0  0.90490  0.24030  0.75640  1.0000
  H   H38       1.0  0.09510  0.24030  0.74360  1.0000
  H   H39       1.0  0.40490  0.74030  0.75640  1.0000
  H   H40       1.0  0.59510  0.74030  0.74360  1.0000
  C   C77       1.0  0.05520  0.23060  0.26150  1.0000
  C   C78       1.0  0.94480  0.23060  0.23850  1.0000
  C   C79       1.0  0.55520  0.73060  0.26150  1.0000
  C   C80       1.0  0.44480  0.73060  0.23850  1.0000
  C   C81       1.0  0.94480  0.76940  0.73850  1.0000
  C   C82       1.0  0.05520  0.76940  0.76150  1.0000
  C   C83       1.0  0.44480  0.26940  0.73850  1.0000
  C   C84       1.0  0.55520  0.26940  0.76150  1.0000
  H   H41       1.0  0.09410  0.19110  0.27030  1.0000
  H   H42       1.0  0.90590  0.19110  0.22970  1.0000
  H   H43       1.0  0.59410  0.69110  0.27030  1.0000
  H   H44       1.0  0.40590  0.69110  0.22970  1.0000
  H   H45       1.0  0.90590  0.80890  0.72970  1.0000
  H   H46       1.0  0.09410  0.80890  0.77030  1.0000
  H   H47       1.0  0.40590  0.30890  0.72970  1.0000
  H   H48       1.0  0.59410  0.30890  0.77030  1.0000
  C   C85       1.0  0.05710  0.34820  0.26080  1.0000
  C   C86       1.0  0.94290  0.34820  0.23920  1.0000
  C   C87       1.0  0.55710  0.84820  0.26080  1.0000
  C   C88       1.0  0.44290  0.84820  0.23920  1.0000
  C   C89       1.0  0.94290  0.65180  0.73920  1.0000
  C   C90       1.0  0.05710  0.65180  0.76080  1.0000
  C   C91       1.0  0.44290  0.15180  0.73920  1.0000
  C   C92       1.0  0.55710  0.15180  0.76080  1.0000
  H   H49       1.0  0.09690  0.38610  0.26770  1.0000
  H   H50       1.0  0.90310  0.38610  0.23230  1.0000
  H   H51       1.0  0.59690  0.88610  0.26770  1.0000
  H   H52       1.0  0.40310  0.88610  0.23230  1.0000
  H   H53       1.0  0.90310  0.61390  0.73230  1.0000
  H   H54       1.0  0.09690  0.61390  0.76770  1.0000
  H   H55       1.0  0.40310  0.11390  0.73230  1.0000
  H   H56       1.0  0.59690  0.11390  0.76770  1.0000
  C   C93       1.0  0.00000  0.41110  0.25000  1.0000
  C   C94       1.0  0.50000  0.91110  0.25000  1.0000
  C   C95       1.0  0.00000  0.58890  0.75000  1.0000
  C   C96       1.0  0.50000  0.08890  0.75000  1.0000
  H   H57       1.0  0.10200  0.92800  0.33500  1.0000
  H   H58       1.0  0.89800  0.92800  0.16500  1.0000
  H   H59       1.0  0.60200  0.42800  0.33500  1.0000
  H   H60       1.0  0.39800  0.42800  0.16500  1.0000
  H   H61       1.0  0.89800  0.07200  0.66500  1.0000
  H   H62       1.0  0.10200  0.07200  0.83500  1.0000
  H   H63       1.0  0.39800  0.57200  0.66500  1.0000
  H   H64       1.0  0.60200  0.57200  0.83500  1.0000
  H   H65       1.0  0.05100  0.97000  0.36100  1.0000
  H   H66       1.0  0.94900  0.97000  0.13900  1.0000
  H   H67       1.0  0.55100  0.47000  0.36100  1.0000
  H   H68       1.0  0.44900  0.47000  0.13900  1.0000
  H   H69       1.0  0.94900  0.03000  0.63900  1.0000
  H   H70       1.0  0.05100  0.03000  0.86100  1.0000
  H   H71       1.0  0.44900  0.53000  0.63900  1.0000
  H   H72       1.0  0.55100  0.53000  0.86100  1.0000
  H   H73       1.0  0.03400  0.11400  0.02000  1.0000
  H   H74       1.0  0.96600  0.11400  0.48000  1.0000
  H   H75       1.0  0.53400  0.61400  0.02000  1.0000
  H   H76       1.0  0.46600  0.61400  0.48000  1.0000
  H   H77       1.0  0.96600  0.88600  0.98000  1.0000
  H   H78       1.0  0.03400  0.88600  0.52000  1.0000
  H   H79       1.0  0.46600  0.38600  0.98000  1.0000
  H   H80       1.0  0.53400  0.38600  0.52000  1.0000
