data_image0
_chemical_formula_structural       Zn4O24N16C12H4C8H4C8H4C20H4C4H4
_chemical_formula_sum              "Zn4 O24 N16 C52 H20"
_cell_length_a       15.9293
_cell_length_b       10.9222
_cell_length_c       15.8803
_cell_angle_alpha    90
_cell_angle_beta     115.246
_cell_angle_gamma    90

_space_group_name_H-M_alt    "P 1"
_space_group_IT_number       1

loop_
  _space_group_symop_operation_xyz
  'x, y, z'

loop_
  _atom_site_type_symbol
  _atom_site_label
  _atom_site_symmetry_multiplicity
  _atom_site_fract_x
  _atom_site_fract_y
  _atom_site_fract_z
  _atom_site_occupancy
  Zn  Zn1       1.0  0.29577  0.41718  0.28847  1.0000
  Zn  Zn2       1.0  0.70423  0.91718  0.21153  1.0000
  Zn  Zn3       1.0  0.70423  0.58282  0.71153  1.0000
  Zn  Zn4       1.0  0.29577  0.08282  0.78847  1.0000
  O   O1        1.0  0.27302  0.53160  0.36995  1.0000
  O   O2        1.0  0.72698  0.03160  0.13005  1.0000
  O   O3        1.0  0.72698  0.46840  0.63005  1.0000
  O   O4        1.0  0.27302  0.96840  0.86995  1.0000
  O   O5        1.0  0.16233  0.66860  0.32703  1.0000
  O   O6        1.0  0.83767  0.16860  0.17297  1.0000
  O   O7        1.0  0.83767  0.33140  0.67297  1.0000
  O   O8        1.0  0.16233  0.83140  0.82703  1.0000
  O   O9        1.0  0.18030  0.95000  0.59125  1.0000
  O   O10       1.0  0.81970  0.45000  0.90875  1.0000
  O   O11       1.0  0.81970  0.05000  0.40875  1.0000
  O   O12       1.0  0.18030  0.55000  0.09125  1.0000
  O   O13       1.0  0.32167  0.99670  0.69629  1.0000
  O   O14       1.0  0.67833  0.49670  0.80371  1.0000
  O   O15       1.0  0.67833  0.00330  0.30371  1.0000
  O   O16       1.0  0.32167  0.50330  0.19629  1.0000
  O   O17       1.0  0.59150  0.76990  0.72239  1.0000
  O   O18       1.0  0.40850  0.26990  0.77761  1.0000
  O   O19       1.0  0.40850  0.23010  0.27761  1.0000
  O   O20       1.0  0.59150  0.73010  0.22239  1.0000
  O   O21       1.0  0.58244  0.63516  0.61594  1.0000
  O   O22       1.0  0.41756  0.13516  0.88406  1.0000
  O   O23       1.0  0.41756  0.36484  0.38406  1.0000
  O   O24       1.0  0.58244  0.86484  0.11594  1.0000
  N   N1        1.0  0.19506  0.29317  0.23822  1.0000
  N   N2        1.0  0.80494  0.79317  0.26178  1.0000
  N   N3        1.0  0.80494  0.70683  0.76178  1.0000
  N   N4        1.0  0.19506  0.20683  0.73822  1.0000
  N   N5        1.0  0.14321  0.25890  0.28000  1.0000
  N   N6        1.0  0.85679  0.75890  0.22000  1.0000
  N   N7        1.0  0.85679  0.74110  0.72000  1.0000
  N   N8        1.0  0.14321  0.24110  0.78000  1.0000
  N   N9        1.0  0.08273  0.17550  0.22665  1.0000
  N   N10       1.0  0.91727  0.67550  0.27335  1.0000
  N   N11       1.0  0.91727  0.82450  0.77335  1.0000
  N   N12       1.0  0.08273  0.32450  0.72665  1.0000
  N   N13       1.0  0.17076  0.23315  0.15724  1.0000
  N   N14       1.0  0.82924  0.73315  0.34276  1.0000
  N   N15       1.0  0.82924  0.76685  0.84276  1.0000
  N   N16       1.0  0.17076  0.26685  0.65724  1.0000
  C   C1        1.0  0.23907  0.62950  0.37944  1.0000
  C   C2        1.0  0.76093  0.12950  0.12056  1.0000
  C   C3        1.0  0.76093  0.37050  0.62056  1.0000
  C   C4        1.0  0.23907  0.87050  0.87944  1.0000
  C   C5        1.0  0.29666  0.70110  0.46640  1.0000
  C   C6        1.0  0.70334  0.20110  0.03360  1.0000
  C   C7        1.0  0.70334  0.29890  0.53360  1.0000
  C   C8        1.0  0.29666  0.79890  0.96640  1.0000
  C   C9        1.0  0.25566  0.78710  0.50152  1.0000
  C   C10       1.0  0.74434  0.28710  0.99848  1.0000
  C   C11       1.0  0.74434  0.21290  0.49848  1.0000
  C   C12       1.0  0.25566  0.71290  0.00152  1.0000
  H   H1        1.0  0.19200  0.80070  0.47140  1.0000
  H   H2        1.0  0.80800  0.30070  0.02860  1.0000
  H   H3        1.0  0.80800  0.19930  0.52860  1.0000
  H   H4        1.0  0.19200  0.69930  0.97140  1.0000
  C   C13       1.0  0.30943  0.85320  0.58179  1.0000
  C   C14       1.0  0.69057  0.35320  0.91821  1.0000
  C   C15       1.0  0.69057  0.14680  0.41821  1.0000
  C   C16       1.0  0.30943  0.64680  0.08179  1.0000
  C   C17       1.0  0.40403  0.83270  0.62561  1.0000
  C   C18       1.0  0.59597  0.33270  0.87439  1.0000
  C   C19       1.0  0.59597  0.16730  0.37439  1.0000
  C   C20       1.0  0.40403  0.66730  0.12561  1.0000
  H   H5        1.0  0.44030  0.87850  0.67790  1.0000
  H   H6        1.0  0.55970  0.37850  0.82210  1.0000
  H   H7        1.0  0.55970  0.12150  0.32210  1.0000
  H   H8        1.0  0.44030  0.62150  0.17790  1.0000
  C   C21       1.0  0.44583  0.74500  0.59282  1.0000
  C   C22       1.0  0.55417  0.24500  0.90718  1.0000
  C   C23       1.0  0.55417  0.25500  0.40718  1.0000
  C   C24       1.0  0.44583  0.75500  0.09282  1.0000
  C   C25       1.0  0.39170  0.67960  0.51263  1.0000
  C   C26       1.0  0.60830  0.17960  0.98737  1.0000
  C   C27       1.0  0.60830  0.32040  0.48737  1.0000
  C   C28       1.0  0.39170  0.82040  0.01263  1.0000
  H   H9        1.0  0.41920  0.62130  0.48980  1.0000
  H   H10       1.0  0.58080  0.12130  0.01020  1.0000
  H   H11       1.0  0.58080  0.37870  0.51020  1.0000
  H   H12       1.0  0.41920  0.87870  0.98980  1.0000
  C   C29       1.0  0.26476  0.93960  0.62486  1.0000
  C   C30       1.0  0.73524  0.43960  0.87514  1.0000
  C   C31       1.0  0.73524  0.06040  0.37514  1.0000
  C   C32       1.0  0.26476  0.56040  0.12486  1.0000
  C   C33       1.0  0.54697  0.71650  0.64738  1.0000
  C   C34       1.0  0.45303  0.21650  0.85262  1.0000
  C   C35       1.0  0.45303  0.28350  0.35262  1.0000
  C   C36       1.0  0.54697  0.78350  0.14738  1.0000
  C   C37       1.0  0.10102  0.16220  0.15229  1.0000
  C   C38       1.0  0.89898  0.66220  0.34771  1.0000
  C   C39       1.0  0.89898  0.83780  0.84771  1.0000
  C   C40       1.0  0.10102  0.33780  0.65229  1.0000
  C   C41       1.0  0.04975  0.07770  0.07440  1.0000
  C   C42       1.0  0.95025  0.57770  0.42560  1.0000
  C   C43       1.0  0.95025  0.92230  0.92560  1.0000
  C   C44       1.0  0.04975  0.42230  0.57440  1.0000
  C   C45       1.0  0.96110  0.04040  0.05783  1.0000
  C   C46       1.0  0.03890  0.54040  0.44217  1.0000
  C   C47       1.0  0.03890  0.95960  0.94217  1.0000
  C   C48       1.0  0.96110  0.45960  0.55783  1.0000
  H   H13       1.0  0.93430  0.06720  0.09630  1.0000
  H   H14       1.0  0.06570  0.56720  0.40370  1.0000
  H   H15       1.0  0.06570  0.93280  0.90370  1.0000
  H   H16       1.0  0.93430  0.43280  0.59630  1.0000
  C   C49       1.0  0.91209  0.96280  0.98371  1.0000
  C   C50       1.0  0.08791  0.46280  0.51629  1.0000
  C   C51       1.0  0.08791  0.03720  0.01629  1.0000
  C   C52       1.0  0.91209  0.53720  0.48371  1.0000
  H   H17       1.0  0.85260  0.93790  0.97320  1.0000
  H   H18       1.0  0.14740  0.43790  0.52680  1.0000
  H   H19       1.0  0.14740  0.06210  0.02680  1.0000
  H   H20       1.0  0.85260  0.56210  0.47320  1.0000
