data_image0
_chemical_formula_structural       Tb4O32C8H8C8H8C4H4C4H8C4H8C4H4C4H8C4H8C12H4C4H4
_chemical_formula_sum              "Tb4 O32 C56 H64"
_cell_length_a       16.9255
_cell_length_b       11.4336
_cell_length_c       21.2979
_cell_angle_alpha    90
_cell_angle_beta     111.818
_cell_angle_gamma    90

_space_group_name_H-M_alt    "P 1"
_space_group_IT_number       1

loop_
  _space_group_symop_operation_xyz
  'x, y, z'

loop_
  _atom_site_type_symbol
  _atom_site_label
  _atom_site_symmetry_multiplicity
  _atom_site_fract_x
  _atom_site_fract_y
  _atom_site_fract_z
  _atom_site_occupancy
  Tb  Tb1       1.0  0.99260  0.57392  0.58221  1.0000
  Tb  Tb2       1.0  0.00740  0.07392  0.91779  1.0000
  Tb  Tb3       1.0  0.00740  0.42608  0.41779  1.0000
  Tb  Tb4       1.0  0.99260  0.92608  0.08221  1.0000
  O   O1        1.0  0.90551  0.62349  0.64511  1.0000
  O   O2        1.0  0.09449  0.12349  0.85489  1.0000
  O   O3        1.0  0.09449  0.37651  0.35489  1.0000
  O   O4        1.0  0.90551  0.87651  0.14511  1.0000
  O   O5        1.0  0.02339  0.53100  0.70158  1.0000
  O   O6        1.0  0.97661  0.03100  0.79842  1.0000
  O   O7        1.0  0.97661  0.46900  0.29842  1.0000
  O   O8        1.0  0.02339  0.96900  0.20158  1.0000
  O   O9        1.0  0.89717  0.21479  0.85922  1.0000
  O   O10       1.0  0.10283  0.71479  0.64078  1.0000
  O   O11       1.0  0.10283  0.78521  0.14078  1.0000
  O   O12       1.0  0.89717  0.28521  0.35922  1.0000
  O   O13       1.0  0.02091  0.28666  0.92359  1.0000
  O   O14       1.0  0.97909  0.78666  0.57641  1.0000
  O   O15       1.0  0.97909  0.71334  0.07641  1.0000
  O   O16       1.0  0.02091  0.21334  0.42359  1.0000
  O   O17       1.0  0.11470  0.45520  0.60877  1.0000
  O   O18       1.0  0.88530  0.95520  0.89123  1.0000
  O   O19       1.0  0.88530  0.54480  0.39123  1.0000
  O   O20       1.0  0.11470  0.04480  0.10877  1.0000
  O   O21       1.0  0.13233  0.39376  0.51432  1.0000
  O   O22       1.0  0.86767  0.89376  0.98568  1.0000
  O   O23       1.0  0.86767  0.60624  0.48568  1.0000
  O   O24       1.0  0.13233  0.10624  0.01432  1.0000
  O   O25       1.0  0.04233  0.61018  0.49502  1.0000
  O   O26       1.0  0.95767  0.11018  0.00498  1.0000
  O   O27       1.0  0.95767  0.38982  0.50498  1.0000
  O   O28       1.0  0.04233  0.88982  0.99502  1.0000
  O   O29       1.0  0.09333  0.60540  0.41507  1.0000
  O   O30       1.0  0.90667  0.10540  0.08493  1.0000
  O   O31       1.0  0.90667  0.39460  0.58493  1.0000
  O   O32       1.0  0.09333  0.89460  0.91507  1.0000
  C   C1        1.0  0.92228  0.55530  0.75628  1.0000
  C   C2        1.0  0.07772  0.05530  0.74372  1.0000
  C   C3        1.0  0.07772  0.44470  0.24372  1.0000
  C   C4        1.0  0.92228  0.94470  0.25628  1.0000
  C   C5        1.0  0.94992  0.43610  0.79030  1.0000
  C   C6        1.0  0.05008  0.93610  0.70970  1.0000
  C   C7        1.0  0.05008  0.56390  0.20970  1.0000
  C   C8        1.0  0.94992  0.06390  0.29030  1.0000
  H   H1        1.0  0.01270  0.42960  0.80740  1.0000
  H   H2        1.0  0.98730  0.92960  0.69260  1.0000
  H   H3        1.0  0.98730  0.57040  0.19260  1.0000
  H   H4        1.0  0.01270  0.07040  0.30740  1.0000
  H   H5        1.0  0.92560  0.37290  0.75690  1.0000
  H   H6        1.0  0.07440  0.87290  0.74310  1.0000
  H   H7        1.0  0.07440  0.62710  0.24310  1.0000
  H   H8        1.0  0.92560  0.12710  0.25690  1.0000
  C   C9        1.0  0.91843  0.42220  0.85041  1.0000
  C   C10       1.0  0.08157  0.92220  0.64959  1.0000
  C   C11       1.0  0.08157  0.57780  0.14959  1.0000
  C   C12       1.0  0.91843  0.07780  0.35041  1.0000
  C   C13       1.0  0.95787  0.52020  0.90132  1.0000
  C   C14       1.0  0.04213  0.02020  0.59868  1.0000
  C   C15       1.0  0.04213  0.47980  0.09868  1.0000
  C   C16       1.0  0.95787  0.97980  0.40132  1.0000
  H   H9        1.0  0.02070  0.51340  0.91890  1.0000
  H   H10       1.0  0.97930  0.01340  0.58110  1.0000
  H   H11       1.0  0.97930  0.48660  0.08110  1.0000
  H   H12       1.0  0.02070  0.98660  0.41890  1.0000
  H   H13       1.0  0.93900  0.51280  0.93990  1.0000
  H   H14       1.0  0.06100  0.01280  0.56010  1.0000
  H   H15       1.0  0.06100  0.48720  0.06010  1.0000
  H   H16       1.0  0.93900  0.98720  0.43990  1.0000
  C   C17       1.0  0.93106  0.64010  0.86749  1.0000
  C   C18       1.0  0.06894  0.14010  0.63251  1.0000
  C   C19       1.0  0.06894  0.35990  0.13251  1.0000
  C   C20       1.0  0.93106  0.85990  0.36749  1.0000
  H   H17       1.0  0.95690  0.70320  0.90140  1.0000
  H   H18       1.0  0.04310  0.20320  0.59860  1.0000
  H   H19       1.0  0.04310  0.29680  0.09860  1.0000
  H   H20       1.0  0.95690  0.79680  0.40140  1.0000
  C   C21       1.0  0.96217  0.65270  0.80867  1.0000
  C   C22       1.0  0.03783  0.15270  0.69133  1.0000
  C   C23       1.0  0.03783  0.34730  0.19133  1.0000
  C   C24       1.0  0.96217  0.84730  0.30867  1.0000
  H   H21       1.0  0.02500  0.64670  0.82590  1.0000
  H   H22       1.0  0.97500  0.14670  0.67410  1.0000
  H   H23       1.0  0.97500  0.35330  0.17410  1.0000
  H   H24       1.0  0.02500  0.85330  0.32590  1.0000
  H   H25       1.0  0.94560  0.73030  0.78710  1.0000
  H   H26       1.0  0.05440  0.23030  0.71290  1.0000
  H   H27       1.0  0.05440  0.26970  0.21290  1.0000
  H   H28       1.0  0.94560  0.76970  0.28710  1.0000
  C   C25       1.0  0.82475  0.56550  0.73078  1.0000
  C   C26       1.0  0.17525  0.06550  0.76922  1.0000
  C   C27       1.0  0.17525  0.43450  0.26922  1.0000
  C   C28       1.0  0.82475  0.93450  0.23078  1.0000
  H   H29       1.0  0.80680  0.64230  0.70860  1.0000
  H   H30       1.0  0.19320  0.14230  0.79140  1.0000
  H   H31       1.0  0.19320  0.35770  0.29140  1.0000
  H   H32       1.0  0.80680  0.85770  0.20860  1.0000
  H   H33       1.0  0.79860  0.50360  0.69690  1.0000
  H   H34       1.0  0.20140  0.00360  0.80310  1.0000
  H   H35       1.0  0.20140  0.49640  0.30310  1.0000
  H   H36       1.0  0.79860  0.99640  0.19690  1.0000
  C   C29       1.0  0.79401  0.55300  0.78955  1.0000
  C   C30       1.0  0.20599  0.05300  0.71045  1.0000
  C   C31       1.0  0.20599  0.44700  0.21045  1.0000
  C   C32       1.0  0.79401  0.94700  0.28955  1.0000
  H   H37       1.0  0.73060  0.56000  0.77230  1.0000
  H   H38       1.0  0.26940  0.06000  0.72770  1.0000
  H   H39       1.0  0.26940  0.44000  0.22770  1.0000
  H   H40       1.0  0.73060  0.94000  0.27230  1.0000
  C   C33       1.0  0.82115  0.43380  0.82304  1.0000
  C   C34       1.0  0.17885  0.93380  0.67696  1.0000
  C   C35       1.0  0.17885  0.56620  0.17696  1.0000
  C   C36       1.0  0.82115  0.06620  0.32304  1.0000
  H   H41       1.0  0.79530  0.37110  0.78960  1.0000
  H   H42       1.0  0.20470  0.87110  0.71040  1.0000
  H   H43       1.0  0.20470  0.62890  0.21040  1.0000
  H   H44       1.0  0.79530  0.12890  0.28960  1.0000
  H   H45       1.0  0.80050  0.42470  0.86060  1.0000
  H   H46       1.0  0.19950  0.92470  0.63940  1.0000
  H   H47       1.0  0.19950  0.57530  0.13940  1.0000
  H   H48       1.0  0.80050  0.07530  0.36060  1.0000
  C   C37       1.0  0.83459  0.65090  0.84092  1.0000
  C   C38       1.0  0.16541  0.15090  0.65908  1.0000
  C   C39       1.0  0.16541  0.34910  0.15908  1.0000
  C   C40       1.0  0.83459  0.84910  0.34092  1.0000
  H   H49       1.0  0.81720  0.72810  0.81900  1.0000
  H   H50       1.0  0.18280  0.22810  0.68100  1.0000
  H   H51       1.0  0.18280  0.27190  0.18100  1.0000
  H   H52       1.0  0.81720  0.77190  0.31900  1.0000
  H   H53       1.0  0.81460  0.64530  0.87900  1.0000
  H   H54       1.0  0.18540  0.14530  0.62100  1.0000
  H   H55       1.0  0.18540  0.35470  0.12100  1.0000
  H   H56       1.0  0.81460  0.85470  0.37900  1.0000
  C   C41       1.0  0.95236  0.56980  0.69730  1.0000
  C   C42       1.0  0.04764  0.06980  0.80270  1.0000
  C   C43       1.0  0.04764  0.43020  0.30270  1.0000
  C   C44       1.0  0.95236  0.93020  0.19730  1.0000
  C   C45       1.0  0.94665  0.30090  0.88018  1.0000
  C   C46       1.0  0.05335  0.80090  0.61982  1.0000
  C   C47       1.0  0.05335  0.69910  0.11982  1.0000
  C   C48       1.0  0.94665  0.19910  0.38018  1.0000
  C   C49       1.0  0.15419  0.40740  0.57687  1.0000
  C   C50       1.0  0.84581  0.90740  0.92313  1.0000
  C   C51       1.0  0.84581  0.59260  0.42313  1.0000
  C   C52       1.0  0.15419  0.09260  0.07687  1.0000
  H   H57       1.0  0.20850  0.37690  0.60360  1.0000
  H   H58       1.0  0.79150  0.87690  0.89640  1.0000
  H   H59       1.0  0.79150  0.62310  0.39640  1.0000
  H   H60       1.0  0.20850  0.12310  0.10360  1.0000
  C   C53       1.0  0.08417  0.65500  0.46378  1.0000
  C   C54       1.0  0.91583  0.15500  0.03622  1.0000
  C   C55       1.0  0.91583  0.34500  0.53622  1.0000
  C   C56       1.0  0.08417  0.84500  0.96378  1.0000
  H   H61       1.0  0.10980  0.72930  0.47770  1.0000
  H   H62       1.0  0.89020  0.22930  0.02230  1.0000
  H   H63       1.0  0.89020  0.27070  0.52230  1.0000
  H   H64       1.0  0.10980  0.77070  0.97770  1.0000
