data_image0
_chemical_formula_structural       Ni12C16H8C16H8C16H8C24O48C8H24C8O16
_chemical_formula_sum              "Ni12 C88 H48 O64"
_cell_length_a       14.1349
_cell_length_b       16.2961
_cell_length_c       16.524
_cell_angle_alpha    90
_cell_angle_beta     90
_cell_angle_gamma    90

_space_group_name_H-M_alt    "P 1"
_space_group_IT_number       1

loop_
  _space_group_symop_operation_xyz
  'x, y, z'

loop_
  _atom_site_type_symbol
  _atom_site_label
  _atom_site_symmetry_multiplicity
  _atom_site_fract_x
  _atom_site_fract_y
  _atom_site_fract_z
  _atom_site_occupancy
  Ni  Ni1       1.0  0.97272  0.67263  0.11398  1.0000
  Ni  Ni2       1.0  0.52728  0.32737  0.61398  1.0000
  Ni  Ni3       1.0  0.02728  0.17263  0.38602  1.0000
  Ni  Ni4       1.0  0.47272  0.82737  0.88602  1.0000
  Ni  Ni5       1.0  0.02728  0.32737  0.88602  1.0000
  Ni  Ni6       1.0  0.47272  0.67263  0.38602  1.0000
  Ni  Ni7       1.0  0.97272  0.82737  0.61398  1.0000
  Ni  Ni8       1.0  0.52728  0.17263  0.11398  1.0000
  Ni  Ni9       1.0  0.00000  0.50000  0.00000  1.0000
  Ni  Ni10      1.0  0.50000  0.50000  0.50000  1.0000
  Ni  Ni11      1.0  0.00000  0.00000  0.50000  1.0000
  Ni  Ni12      1.0  0.50000  0.00000  0.00000  1.0000
  C   C1        1.0  0.13894  0.49671  0.23520  1.0000
  C   C2        1.0  0.36106  0.50329  0.73520  1.0000
  C   C3        1.0  0.86106  0.99671  0.26480  1.0000
  C   C4        1.0  0.63894  0.00329  0.76480  1.0000
  C   C5        1.0  0.86106  0.50329  0.76480  1.0000
  C   C6        1.0  0.63894  0.49671  0.26480  1.0000
  C   C7        1.0  0.13894  0.00329  0.73520  1.0000
  C   C8        1.0  0.36106  0.99671  0.23520  1.0000
  C   C9        1.0  0.11333  0.41695  0.25374  1.0000
  C   C10       1.0  0.38667  0.58305  0.75374  1.0000
  C   C11       1.0  0.88667  0.91695  0.24626  1.0000
  C   C12       1.0  0.61333  0.08305  0.74626  1.0000
  C   C13       1.0  0.88667  0.58305  0.74626  1.0000
  C   C14       1.0  0.61333  0.41695  0.24626  1.0000
  C   C15       1.0  0.11333  0.08305  0.75374  1.0000
  C   C16       1.0  0.38667  0.91695  0.25374  1.0000
  H   H1        1.0  0.07000  0.38860  0.21980  1.0000
  H   H2        1.0  0.43000  0.61140  0.71980  1.0000
  H   H3        1.0  0.93000  0.88860  0.28020  1.0000
  H   H4        1.0  0.57000  0.11140  0.78020  1.0000
  H   H5        1.0  0.93000  0.61140  0.78020  1.0000
  H   H6        1.0  0.57000  0.38860  0.28020  1.0000
  H   H7        1.0  0.07000  0.11140  0.71980  1.0000
  H   H8        1.0  0.43000  0.88860  0.21980  1.0000
  C   C17       1.0  0.15028  0.37775  0.32145  1.0000
  C   C18       1.0  0.34972  0.62225  0.82145  1.0000
  C   C19       1.0  0.84972  0.87775  0.17855  1.0000
  C   C20       1.0  0.65028  0.12225  0.67855  1.0000
  C   C21       1.0  0.84972  0.62225  0.67855  1.0000
  C   C22       1.0  0.65028  0.37775  0.17855  1.0000
  C   C23       1.0  0.15028  0.12225  0.82145  1.0000
  C   C24       1.0  0.34972  0.87775  0.32145  1.0000
  C   C25       1.0  0.22011  0.41706  0.36651  1.0000
  C   C26       1.0  0.27989  0.58294  0.86651  1.0000
  C   C27       1.0  0.77989  0.91706  0.13349  1.0000
  C   C28       1.0  0.72011  0.08294  0.63349  1.0000
  C   C29       1.0  0.77989  0.58294  0.63349  1.0000
  C   C30       1.0  0.72011  0.41706  0.13349  1.0000
  C   C31       1.0  0.22011  0.08294  0.86651  1.0000
  C   C32       1.0  0.27989  0.91706  0.36651  1.0000
  H   H9        1.0  0.24580  0.39080  0.41290  1.0000
  H   H10       1.0  0.25420  0.60920  0.91290  1.0000
  H   H11       1.0  0.75420  0.89080  0.08710  1.0000
  H   H12       1.0  0.74580  0.10920  0.58710  1.0000
  H   H13       1.0  0.75420  0.60920  0.58710  1.0000
  H   H14       1.0  0.74580  0.39080  0.08710  1.0000
  H   H15       1.0  0.24580  0.10920  0.91290  1.0000
  H   H16       1.0  0.25420  0.89080  0.41290  1.0000
  C   C33       1.0  0.25244  0.49409  0.34428  1.0000
  C   C34       1.0  0.24756  0.50591  0.84428  1.0000
  C   C35       1.0  0.74756  0.99409  0.15572  1.0000
  C   C36       1.0  0.75244  0.00591  0.65572  1.0000
  C   C37       1.0  0.74756  0.50591  0.65572  1.0000
  C   C38       1.0  0.75244  0.49409  0.15572  1.0000
  C   C39       1.0  0.25244  0.00591  0.84428  1.0000
  C   C40       1.0  0.24756  0.99409  0.34428  1.0000
  C   C41       1.0  0.20818  0.53592  0.28068  1.0000
  C   C42       1.0  0.29182  0.46408  0.78068  1.0000
  C   C43       1.0  0.79182  0.03592  0.21932  1.0000
  C   C44       1.0  0.70818  0.96408  0.71932  1.0000
  C   C45       1.0  0.79182  0.46408  0.71932  1.0000
  C   C46       1.0  0.70818  0.53592  0.21932  1.0000
  C   C47       1.0  0.20818  0.96408  0.78068  1.0000
  C   C48       1.0  0.29182  0.03592  0.28068  1.0000
  H   H17       1.0  0.22540  0.59090  0.26870  1.0000
  H   H18       1.0  0.27460  0.40910  0.76870  1.0000
  H   H19       1.0  0.77460  0.09090  0.23130  1.0000
  H   H20       1.0  0.72540  0.90910  0.73130  1.0000
  H   H21       1.0  0.77460  0.40910  0.73130  1.0000
  H   H22       1.0  0.72540  0.59090  0.23130  1.0000
  H   H23       1.0  0.22540  0.90910  0.76870  1.0000
  H   H24       1.0  0.27460  0.09090  0.26870  1.0000
  C   C49       1.0  0.08987  0.53910  0.16545  1.0000
  C   C50       1.0  0.41013  0.46090  0.66545  1.0000
  C   C51       1.0  0.91013  0.03910  0.33455  1.0000
  C   C52       1.0  0.58987  0.96090  0.83455  1.0000
  C   C53       1.0  0.91013  0.46090  0.83455  1.0000
  C   C54       1.0  0.58987  0.53910  0.33455  1.0000
  C   C55       1.0  0.08987  0.96090  0.66545  1.0000
  C   C56       1.0  0.41013  0.03910  0.16545  1.0000
  C   C57       1.0  0.11163  0.29506  0.34502  1.0000
  C   C58       1.0  0.38837  0.70494  0.84502  1.0000
  C   C59       1.0  0.88837  0.79506  0.15498  1.0000
  C   C60       1.0  0.61163  0.20494  0.65498  1.0000
  C   C61       1.0  0.88837  0.70494  0.65498  1.0000
  C   C62       1.0  0.61163  0.29506  0.15498  1.0000
  C   C63       1.0  0.11163  0.20494  0.84502  1.0000
  C   C64       1.0  0.38837  0.79506  0.34502  1.0000
  C   C65       1.0  0.33821  0.53209  0.38431  1.0000
  C   C66       1.0  0.16179  0.46791  0.88431  1.0000
  C   C67       1.0  0.66179  0.03209  0.11569  1.0000
  C   C68       1.0  0.83821  0.96791  0.61569  1.0000
  C   C69       1.0  0.66179  0.46791  0.61569  1.0000
  C   C70       1.0  0.83821  0.53209  0.11569  1.0000
  C   C71       1.0  0.33821  0.96791  0.88431  1.0000
  C   C72       1.0  0.16179  0.03209  0.38431  1.0000
  O   O1        1.0  0.08198  0.61616  0.16901  1.0000
  O   O2        1.0  0.41802  0.38384  0.66901  1.0000
  O   O3        1.0  0.91802  0.11616  0.33099  1.0000
  O   O4        1.0  0.58198  0.88384  0.83099  1.0000
  O   O5        1.0  0.91802  0.38384  0.83099  1.0000
  O   O6        1.0  0.58198  0.61616  0.33099  1.0000
  O   O7        1.0  0.08198  0.88384  0.66901  1.0000
  O   O8        1.0  0.41802  0.11616  0.16901  1.0000
  O   O9        1.0  0.05962  0.49238  0.11133  1.0000
  O   O10       1.0  0.44038  0.50762  0.61133  1.0000
  O   O11       1.0  0.94038  0.99238  0.38867  1.0000
  O   O12       1.0  0.55962  0.00762  0.88867  1.0000
  O   O13       1.0  0.94038  0.50762  0.88867  1.0000
  O   O14       1.0  0.55962  0.49238  0.38867  1.0000
  O   O15       1.0  0.05962  0.00762  0.61133  1.0000
  O   O16       1.0  0.44038  0.99238  0.11133  1.0000
  O   O17       1.0  0.05129  0.26097  0.29906  1.0000
  O   O18       1.0  0.44871  0.73903  0.79906  1.0000
  O   O19       1.0  0.94871  0.76097  0.20094  1.0000
  O   O20       1.0  0.55129  0.23903  0.70094  1.0000
  O   O21       1.0  0.94871  0.73903  0.70094  1.0000
  O   O22       1.0  0.55129  0.26097  0.20094  1.0000
  O   O23       1.0  0.05129  0.23903  0.79906  1.0000
  O   O24       1.0  0.44871  0.76097  0.29906  1.0000
  O   O25       1.0  0.13573  0.26241  0.41087  1.0000
  O   O26       1.0  0.36427  0.73759  0.91087  1.0000
  O   O27       1.0  0.86427  0.76241  0.08913  1.0000
  O   O28       1.0  0.63573  0.23759  0.58913  1.0000
  O   O29       1.0  0.86427  0.73759  0.58913  1.0000
  O   O30       1.0  0.63573  0.26241  0.08913  1.0000
  O   O31       1.0  0.13573  0.23759  0.91087  1.0000
  O   O32       1.0  0.36427  0.76241  0.41087  1.0000
  O   O33       1.0  0.36667  0.49921  0.44907  1.0000
  O   O34       1.0  0.13333  0.50079  0.94907  1.0000
  O   O35       1.0  0.63333  0.99921  0.05093  1.0000
  O   O36       1.0  0.86667  0.00079  0.55093  1.0000
  O   O37       1.0  0.63333  0.50079  0.55093  1.0000
  O   O38       1.0  0.86667  0.49921  0.05093  1.0000
  O   O39       1.0  0.36667  0.00079  0.94907  1.0000
  O   O40       1.0  0.13333  0.99921  0.44907  1.0000
  O   O41       1.0  0.37515  0.59115  0.34715  1.0000
  O   O42       1.0  0.12485  0.40885  0.84715  1.0000
  O   O43       1.0  0.62485  0.09115  0.15285  1.0000
  O   O44       1.0  0.87515  0.90885  0.65285  1.0000
  O   O45       1.0  0.62485  0.40885  0.65285  1.0000
  O   O46       1.0  0.87515  0.59115  0.15285  1.0000
  O   O47       1.0  0.37515  0.90885  0.84715  1.0000
  O   O48       1.0  0.12485  0.09115  0.34715  1.0000
  C   C73       1.0  0.92299  0.30552  0.10718  1.0000
  C   C74       1.0  0.57701  0.69448  0.60718  1.0000
  C   C75       1.0  0.07701  0.80552  0.39282  1.0000
  C   C76       1.0  0.42299  0.19448  0.89282  1.0000
  C   C77       1.0  0.07701  0.69448  0.89282  1.0000
  C   C78       1.0  0.42299  0.30552  0.39282  1.0000
  C   C79       1.0  0.92299  0.19448  0.60718  1.0000
  C   C80       1.0  0.57701  0.80552  0.10718  1.0000
  H   H25       1.0  0.85390  0.30130  0.11000  1.0000
  H   H26       1.0  0.64610  0.69870  0.61000  1.0000
  H   H27       1.0  0.14610  0.80130  0.39000  1.0000
  H   H28       1.0  0.35390  0.19870  0.89000  1.0000
  H   H29       1.0  0.14610  0.69870  0.89000  1.0000
  H   H30       1.0  0.35390  0.30130  0.39000  1.0000
  H   H31       1.0  0.85390  0.19870  0.61000  1.0000
  H   H32       1.0  0.64610  0.80130  0.11000  1.0000
  H   H33       1.0  0.95150  0.25620  0.13070  1.0000
  H   H34       1.0  0.54850  0.74380  0.63070  1.0000
  H   H35       1.0  0.04850  0.75620  0.36930  1.0000
  H   H36       1.0  0.45150  0.24380  0.86930  1.0000
  H   H37       1.0  0.04850  0.74380  0.86930  1.0000
  H   H38       1.0  0.45150  0.25620  0.36930  1.0000
  H   H39       1.0  0.95150  0.24380  0.63070  1.0000
  H   H40       1.0  0.54850  0.75620  0.13070  1.0000
  H   H41       1.0  0.94390  0.35390  0.13750  1.0000
  H   H42       1.0  0.55610  0.64610  0.63750  1.0000
  H   H43       1.0  0.05610  0.85390  0.36250  1.0000
  H   H44       1.0  0.44390  0.14610  0.86250  1.0000
  H   H45       1.0  0.05610  0.64610  0.86250  1.0000
  H   H46       1.0  0.44390  0.35390  0.36250  1.0000
  H   H47       1.0  0.94390  0.14610  0.63750  1.0000
  H   H48       1.0  0.55610  0.85390  0.13750  1.0000
  C   C81       1.0  0.95300  0.31344  0.02050  1.0000
  C   C82       1.0  0.54700  0.68656  0.52050  1.0000
  C   C83       1.0  0.04700  0.81344  0.47950  1.0000
  C   C84       1.0  0.45300  0.18656  0.97950  1.0000
  C   C85       1.0  0.04700  0.68656  0.97950  1.0000
  C   C86       1.0  0.45300  0.31344  0.47950  1.0000
  C   C87       1.0  0.95300  0.18656  0.52050  1.0000
  C   C88       1.0  0.54700  0.81344  0.02050  1.0000
  O   O49       1.0  0.93346  0.25958  0.96925  1.0000
  O   O50       1.0  0.56654  0.74042  0.46925  1.0000
  O   O51       1.0  0.06654  0.75958  0.53075  1.0000
  O   O52       1.0  0.43346  0.24042  0.03075  1.0000
  O   O53       1.0  0.06654  0.74042  0.03075  1.0000
  O   O54       1.0  0.43346  0.25958  0.53075  1.0000
  O   O55       1.0  0.93346  0.24042  0.46925  1.0000
  O   O56       1.0  0.56654  0.75958  0.96925  1.0000
  O   O57       1.0  0.00589  0.37319  0.99895  1.0000
  O   O58       1.0  0.49411  0.62681  0.49895  1.0000
  O   O59       1.0  0.99411  0.87319  0.50105  1.0000
  O   O60       1.0  0.50589  0.12681  0.00105  1.0000
  O   O61       1.0  0.99411  0.62681  0.00105  1.0000
  O   O62       1.0  0.50589  0.37319  0.50105  1.0000
  O   O63       1.0  0.00589  0.12681  0.49895  1.0000
  O   O64       1.0  0.49411  0.87319  0.99895  1.0000
