data_image0
_chemical_formula_structural       Cu8O48N16C32H8C24H8C8H8C8H8C8K8O16H32
_chemical_formula_sum              "Cu8 O64 N16 C80 H64 K8"
_cell_length_a       7.057
_cell_length_b       25.764
_cell_length_c       20.525
_cell_angle_alpha    90
_cell_angle_beta     93.429
_cell_angle_gamma    90

_space_group_name_H-M_alt    "P 1"
_space_group_IT_number       1

loop_
  _space_group_symop_operation_xyz
  'x, y, z'

loop_
  _atom_site_type_symbol
  _atom_site_label
  _atom_site_symmetry_multiplicity
  _atom_site_fract_x
  _atom_site_fract_y
  _atom_site_fract_z
  _atom_site_occupancy
  Cu  Cu1       1.0  0.53015  0.21830  0.51833  1.0000
  Cu  Cu2       1.0  0.46985  0.21830  0.98167  1.0000
  Cu  Cu3       1.0  0.03015  0.71830  0.51833  1.0000
  Cu  Cu4       1.0  0.96985  0.71830  0.98167  1.0000
  Cu  Cu5       1.0  0.46985  0.78170  0.48167  1.0000
  Cu  Cu6       1.0  0.53015  0.78170  0.01833  1.0000
  Cu  Cu7       1.0  0.96985  0.28170  0.48167  1.0000
  Cu  Cu8       1.0  0.03015  0.28170  0.01833  1.0000
  O   O1        1.0  0.62540  0.28508  0.55274  1.0000
  O   O2        1.0  0.37460  0.28508  0.94726  1.0000
  O   O3        1.0  0.12540  0.78508  0.55274  1.0000
  O   O4        1.0  0.87460  0.78508  0.94726  1.0000
  O   O5        1.0  0.37460  0.71492  0.44726  1.0000
  O   O6        1.0  0.62540  0.71492  0.05274  1.0000
  O   O7        1.0  0.87460  0.21492  0.44726  1.0000
  O   O8        1.0  0.12540  0.21492  0.05274  1.0000
  O   O9        1.0  0.71860  0.22212  0.70485  1.0000
  O   O10       1.0  0.28140  0.22212  0.79515  1.0000
  O   O11       1.0  0.21860  0.72212  0.70485  1.0000
  O   O12       1.0  0.78140  0.72212  0.79515  1.0000
  O   O13       1.0  0.28140  0.77788  0.29515  1.0000
  O   O14       1.0  0.71860  0.77788  0.20485  1.0000
  O   O15       1.0  0.78140  0.27788  0.29515  1.0000
  O   O16       1.0  0.21860  0.27788  0.20485  1.0000
  O   O17       1.0  0.73870  0.31826  0.64788  1.0000
  O   O18       1.0  0.26130  0.31826  0.85212  1.0000
  O   O19       1.0  0.23870  0.81826  0.64788  1.0000
  O   O20       1.0  0.76130  0.81826  0.85212  1.0000
  O   O21       1.0  0.26130  0.68174  0.35212  1.0000
  O   O22       1.0  0.73870  0.68174  0.14788  1.0000
  O   O23       1.0  0.76130  0.18174  0.35212  1.0000
  O   O24       1.0  0.23870  0.18174  0.14788  1.0000
  O   O25       1.0  0.40420  0.23273  0.43255  1.0000
  O   O26       1.0  0.59580  0.23273  0.06745  1.0000
  O   O27       1.0  0.90420  0.73273  0.43255  1.0000
  O   O28       1.0  0.09580  0.73273  0.06745  1.0000
  O   O29       1.0  0.59580  0.76727  0.56745  1.0000
  O   O30       1.0  0.40420  0.76727  0.93255  1.0000
  O   O31       1.0  0.09580  0.26727  0.56745  1.0000
  O   O32       1.0  0.90420  0.26727  0.93255  1.0000
  O   O33       1.0  0.30900  0.09773  0.41814  1.0000
  O   O34       1.0  0.69100  0.09773  0.08186  1.0000
  O   O35       1.0  0.80900  0.59773  0.41814  1.0000
  O   O36       1.0  0.19100  0.59773  0.08186  1.0000
  O   O37       1.0  0.69100  0.90227  0.58186  1.0000
  O   O38       1.0  0.30900  0.90227  0.91814  1.0000
  O   O39       1.0  0.19100  0.40227  0.58186  1.0000
  O   O40       1.0  0.80900  0.40227  0.91814  1.0000
  O   O41       1.0  0.25340  0.19110  0.35033  1.0000
  O   O42       1.0  0.74660  0.19110  0.14967  1.0000
  O   O43       1.0  0.75340  0.69110  0.35033  1.0000
  O   O44       1.0  0.24660  0.69110  0.14967  1.0000
  O   O45       1.0  0.74660  0.80890  0.64967  1.0000
  O   O46       1.0  0.25340  0.80890  0.85033  1.0000
  O   O47       1.0  0.24660  0.30890  0.64967  1.0000
  O   O48       1.0  0.75340  0.30890  0.85033  1.0000
  N   N1        1.0  0.45990  0.14819  0.49945  1.0000
  N   N2        1.0  0.54010  0.14819  0.00055  1.0000
  N   N3        1.0  0.95990  0.64819  0.49945  1.0000
  N   N4        1.0  0.04010  0.64819  0.00055  1.0000
  N   N5        1.0  0.54010  0.85181  0.50055  1.0000
  N   N6        1.0  0.45990  0.85181  0.99945  1.0000
  N   N7        1.0  0.04010  0.35181  0.50055  1.0000
  N   N8        1.0  0.95990  0.35181  0.99945  1.0000
  N   N9        1.0  0.60530  0.19184  0.60289  1.0000
  N   N10       1.0  0.39470  0.19184  0.89711  1.0000
  N   N11       1.0  0.10530  0.69184  0.60289  1.0000
  N   N12       1.0  0.89470  0.69184  0.89711  1.0000
  N   N13       1.0  0.39470  0.80816  0.39711  1.0000
  N   N14       1.0  0.60530  0.80816  0.10289  1.0000
  N   N15       1.0  0.89470  0.30816  0.39711  1.0000
  N   N16       1.0  0.10530  0.30816  0.10289  1.0000
  C   C1        1.0  0.57740  0.13842  0.60942  1.0000
  C   C2        1.0  0.42260  0.13842  0.89058  1.0000
  C   C3        1.0  0.07740  0.63842  0.60942  1.0000
  C   C4        1.0  0.92260  0.63842  0.89058  1.0000
  C   C5        1.0  0.42260  0.86158  0.39058  1.0000
  C   C6        1.0  0.57740  0.86158  0.10942  1.0000
  C   C7        1.0  0.92260  0.36158  0.39058  1.0000
  C   C8        1.0  0.07740  0.36158  0.10942  1.0000
  C   C9        1.0  0.50190  0.11323  0.55149  1.0000
  C   C10       1.0  0.49810  0.11323  0.94851  1.0000
  C   C11       1.0  0.00190  0.61323  0.55149  1.0000
  C   C12       1.0  0.99810  0.61323  0.94851  1.0000
  C   C13       1.0  0.49810  0.88677  0.44851  1.0000
  C   C14       1.0  0.50190  0.88677  0.05149  1.0000
  C   C15       1.0  0.99810  0.38677  0.44851  1.0000
  C   C16       1.0  0.00190  0.38677  0.05149  1.0000
  C   C17       1.0  0.36990  0.13939  0.44281  1.0000
  C   C18       1.0  0.63010  0.13939  0.05719  1.0000
  C   C19       1.0  0.86990  0.63939  0.44281  1.0000
  C   C20       1.0  0.13010  0.63939  0.05719  1.0000
  C   C21       1.0  0.63010  0.86061  0.55719  1.0000
  C   C22       1.0  0.36990  0.86061  0.94281  1.0000
  C   C23       1.0  0.13010  0.36061  0.55719  1.0000
  C   C24       1.0  0.86990  0.36061  0.94281  1.0000
  C   C25       1.0  0.47870  0.06039  0.55030  1.0000
  C   C26       1.0  0.52130  0.06039  0.94970  1.0000
  C   C27       1.0  0.97870  0.56039  0.55030  1.0000
  C   C28       1.0  0.02130  0.56039  0.94970  1.0000
  C   C29       1.0  0.52130  0.93961  0.44970  1.0000
  C   C30       1.0  0.47870  0.93961  0.05030  1.0000
  C   C31       1.0  0.02130  0.43961  0.44970  1.0000
  C   C32       1.0  0.97870  0.43961  0.05030  1.0000
  H   H1        1.0  0.43270  0.04410  0.51210  1.0000
  H   H2        1.0  0.56730  0.04410  0.98790  1.0000
  H   H3        1.0  0.93270  0.54410  0.51210  1.0000
  H   H4        1.0  0.06730  0.54410  0.98790  1.0000
  H   H5        1.0  0.56730  0.95590  0.48790  1.0000
  H   H6        1.0  0.43270  0.95590  0.01210  1.0000
  H   H7        1.0  0.06730  0.45590  0.48790  1.0000
  H   H8        1.0  0.93270  0.45590  0.01210  1.0000
  C   C33       1.0  0.33810  0.19123  0.40460  1.0000
  C   C34       1.0  0.66190  0.19123  0.09540  1.0000
  C   C35       1.0  0.83810  0.69123  0.40460  1.0000
  C   C36       1.0  0.16190  0.69123  0.09540  1.0000
  C   C37       1.0  0.66190  0.80877  0.59540  1.0000
  C   C38       1.0  0.33810  0.80877  0.90460  1.0000
  C   C39       1.0  0.16190  0.30877  0.59540  1.0000
  C   C40       1.0  0.83810  0.30877  0.90460  1.0000
  C   C41       1.0  0.66900  0.22683  0.64620  1.0000
  C   C42       1.0  0.33100  0.22683  0.85380  1.0000
  C   C43       1.0  0.16900  0.72683  0.64620  1.0000
  C   C44       1.0  0.83100  0.72683  0.85380  1.0000
  C   C45       1.0  0.33100  0.77317  0.35380  1.0000
  C   C46       1.0  0.66900  0.77317  0.14620  1.0000
  C   C47       1.0  0.83100  0.27317  0.35380  1.0000
  C   C48       1.0  0.16900  0.27317  0.14620  1.0000
  C   C49       1.0  0.59200  0.05531  0.66310  1.0000
  C   C50       1.0  0.40800  0.05531  0.83690  1.0000
  C   C51       1.0  0.09200  0.55531  0.66310  1.0000
  C   C52       1.0  0.90800  0.55531  0.83690  1.0000
  C   C53       1.0  0.40800  0.94469  0.33690  1.0000
  C   C54       1.0  0.59200  0.94469  0.16310  1.0000
  C   C55       1.0  0.90800  0.44469  0.33690  1.0000
  C   C56       1.0  0.09200  0.44469  0.16310  1.0000
  H   H9        1.0  0.62030  0.03570  0.70050  1.0000
  H   H10       1.0  0.37970  0.03570  0.79950  1.0000
  H   H11       1.0  0.12030  0.53570  0.70050  1.0000
  H   H12       1.0  0.87970  0.53570  0.79950  1.0000
  H   H13       1.0  0.37970  0.96430  0.29950  1.0000
  H   H14       1.0  0.62030  0.96430  0.20050  1.0000
  H   H15       1.0  0.87970  0.46430  0.29950  1.0000
  H   H16       1.0  0.12030  0.46430  0.20050  1.0000
  C   C57       1.0  0.52380  0.03079  0.60650  1.0000
  C   C58       1.0  0.47620  0.03079  0.89350  1.0000
  C   C59       1.0  0.02380  0.53079  0.60650  1.0000
  C   C60       1.0  0.97620  0.53079  0.89350  1.0000
  C   C61       1.0  0.47620  0.96921  0.39350  1.0000
  C   C62       1.0  0.52380  0.96921  0.10650  1.0000
  C   C63       1.0  0.97620  0.46921  0.39350  1.0000
  C   C64       1.0  0.02380  0.46921  0.10650  1.0000
  H   H17       1.0  0.50810  0.99490  0.60570  1.0000
  H   H18       1.0  0.49190  0.99490  0.89430  1.0000
  H   H19       1.0  0.00810  0.49490  0.60570  1.0000
  H   H20       1.0  0.99190  0.49490  0.89430  1.0000
  H   H21       1.0  0.49190  0.00510  0.39430  1.0000
  H   H22       1.0  0.50810  0.00510  0.10570  1.0000
  H   H23       1.0  0.99190  0.50510  0.39430  1.0000
  H   H24       1.0  0.00810  0.50510  0.10570  1.0000
  C   C65       1.0  0.61860  0.10841  0.66490  1.0000
  C   C66       1.0  0.38140  0.10841  0.83510  1.0000
  C   C67       1.0  0.11860  0.60841  0.66490  1.0000
  C   C68       1.0  0.88140  0.60841  0.83510  1.0000
  C   C69       1.0  0.38140  0.89159  0.33510  1.0000
  C   C70       1.0  0.61860  0.89159  0.16490  1.0000
  C   C71       1.0  0.88140  0.39159  0.33510  1.0000
  C   C72       1.0  0.11860  0.39159  0.16490  1.0000
  H   H25       1.0  0.66440  0.12420  0.70340  1.0000
  H   H26       1.0  0.33560  0.12420  0.79660  1.0000
  H   H27       1.0  0.16440  0.62420  0.70340  1.0000
  H   H28       1.0  0.83560  0.62420  0.79660  1.0000
  H   H29       1.0  0.33560  0.87580  0.29660  1.0000
  H   H30       1.0  0.66440  0.87580  0.20340  1.0000
  H   H31       1.0  0.83560  0.37580  0.29660  1.0000
  H   H32       1.0  0.16440  0.37580  0.20340  1.0000
  C   C73       1.0  0.67980  0.28146  0.61320  1.0000
  C   C74       1.0  0.32020  0.28146  0.88680  1.0000
  C   C75       1.0  0.17980  0.78146  0.61320  1.0000
  C   C76       1.0  0.82020  0.78146  0.88680  1.0000
  C   C77       1.0  0.32020  0.71854  0.38680  1.0000
  C   C78       1.0  0.67980  0.71854  0.11320  1.0000
  C   C79       1.0  0.82020  0.21854  0.38680  1.0000
  C   C80       1.0  0.17980  0.21854  0.11320  1.0000
  K   K1        1.0  0.50000  0.20596  0.25000  1.0000
  K   K2        1.0  0.00000  0.70596  0.25000  1.0000
  K   K3        1.0  0.50000  0.79404  0.75000  1.0000
  K   K4        1.0  0.00000  0.29404  0.75000  1.0000
  K   K5        1.0  0.00000  0.16890  0.25000  1.0000
  K   K6        1.0  0.50000  0.66890  0.25000  1.0000
  K   K7        1.0  0.00000  0.83110  0.75000  1.0000
  K   K8        1.0  0.50000  0.33110  0.75000  1.0000
  O   O49       1.0  0.32730  0.09430  0.27580  1.0000
  O   O50       1.0  0.67270  0.09430  0.22420  1.0000
  O   O51       1.0  0.82730  0.59430  0.27580  1.0000
  O   O52       1.0  0.17270  0.59430  0.22420  1.0000
  O   O53       1.0  0.67270  0.90570  0.72420  1.0000
  O   O54       1.0  0.32730  0.90570  0.77580  1.0000
  O   O55       1.0  0.17270  0.40570  0.72420  1.0000
  O   O56       1.0  0.82730  0.40570  0.77580  1.0000
  O   O57       1.0  0.93300  0.08388  0.36889  1.0000
  O   O58       1.0  0.06700  0.08388  0.13111  1.0000
  O   O59       1.0  0.43300  0.58388  0.36889  1.0000
  O   O60       1.0  0.56700  0.58388  0.13111  1.0000
  O   O61       1.0  0.06700  0.91612  0.63111  1.0000
  O   O62       1.0  0.93300  0.91612  0.86889  1.0000
  O   O63       1.0  0.56700  0.41612  0.63111  1.0000
  O   O64       1.0  0.43300  0.41612  0.86889  1.0000
  H   H33       1.0  0.28300  0.06170  0.27100  1.0000
  H   H34       1.0  0.71700  0.06170  0.22900  1.0000
  H   H35       1.0  0.78300  0.56170  0.27100  1.0000
  H   H36       1.0  0.21700  0.56170  0.22900  1.0000
  H   H37       1.0  0.71700  0.93830  0.72900  1.0000
  H   H38       1.0  0.28300  0.93830  0.77100  1.0000
  H   H39       1.0  0.21700  0.43830  0.72900  1.0000
  H   H40       1.0  0.78300  0.43830  0.77100  1.0000
  H   H41       1.0  0.35700  0.09580  0.31900  1.0000
  H   H42       1.0  0.64300  0.09580  0.18100  1.0000
  H   H43       1.0  0.85700  0.59580  0.31900  1.0000
  H   H44       1.0  0.14300  0.59580  0.18100  1.0000
  H   H45       1.0  0.64300  0.90420  0.68100  1.0000
  H   H46       1.0  0.35700  0.90420  0.81900  1.0000
  H   H47       1.0  0.14300  0.40420  0.68100  1.0000
  H   H48       1.0  0.85700  0.40420  0.81900  1.0000
  H   H49       1.0  0.04900  0.09290  0.38600  1.0000
  H   H50       1.0  0.95100  0.09290  0.11400  1.0000
  H   H51       1.0  0.54900  0.59290  0.38600  1.0000
  H   H52       1.0  0.45100  0.59290  0.11400  1.0000
  H   H53       1.0  0.95100  0.90710  0.61400  1.0000
  H   H54       1.0  0.04900  0.90710  0.88600  1.0000
  H   H55       1.0  0.45100  0.40710  0.61400  1.0000
  H   H56       1.0  0.54900  0.40710  0.88600  1.0000
  H   H57       1.0  0.88000  0.11500  0.35900  1.0000
  H   H58       1.0  0.12000  0.11500  0.14100  1.0000
  H   H59       1.0  0.38000  0.61500  0.35900  1.0000
  H   H60       1.0  0.62000  0.61500  0.14100  1.0000
  H   H61       1.0  0.12000  0.88500  0.64100  1.0000
  H   H62       1.0  0.88000  0.88500  0.85900  1.0000
  H   H63       1.0  0.62000  0.38500  0.64100  1.0000
  H   H64       1.0  0.38000  0.38500  0.85900  1.0000
