data_image0
_chemical_formula_structural       Zn8O48N8C8H8C8H8C8H8C8H8C8H8C24H8C32H8C8H8C8
_chemical_formula_sum              "Zn8 O48 N8 C112 H64"
_cell_length_a       13.652
_cell_length_b       16.345
_cell_length_c       18.734
_cell_angle_alpha    90
_cell_angle_beta     90
_cell_angle_gamma    90

_space_group_name_H-M_alt    "P 1"
_space_group_IT_number       1

loop_
  _space_group_symop_operation_xyz
  'x, y, z'

loop_
  _atom_site_type_symbol
  _atom_site_label
  _atom_site_symmetry_multiplicity
  _atom_site_fract_x
  _atom_site_fract_y
  _atom_site_fract_z
  _atom_site_occupancy
  Zn  Zn1       1.0  0.20533  0.12351  0.43564  1.0000
  Zn  Zn2       1.0  0.70533  0.12351  0.06436  1.0000
  Zn  Zn3       1.0  0.20533  0.37649  0.93564  1.0000
  Zn  Zn4       1.0  0.29467  0.62351  0.43564  1.0000
  Zn  Zn5       1.0  0.79467  0.87649  0.56436  1.0000
  Zn  Zn6       1.0  0.29467  0.87649  0.93564  1.0000
  Zn  Zn7       1.0  0.79467  0.62351  0.06436  1.0000
  Zn  Zn8       1.0  0.70533  0.37649  0.56436  1.0000
  O   O1        1.0  0.13570  0.19210  0.50560  1.0000
  O   O2        1.0  0.63570  0.19210  0.99440  1.0000
  O   O3        1.0  0.13570  0.30790  0.00560  1.0000
  O   O4        1.0  0.36430  0.69210  0.50560  1.0000
  O   O5        1.0  0.86430  0.80790  0.49440  1.0000
  O   O6        1.0  0.36430  0.80790  0.00560  1.0000
  O   O7        1.0  0.86430  0.69210  0.99440  1.0000
  O   O8        1.0  0.63570  0.30790  0.49440  1.0000
  O   O9        1.0  0.24910  0.16370  0.58600  1.0000
  O   O10       1.0  0.74910  0.16370  0.91400  1.0000
  O   O11       1.0  0.24910  0.33630  0.08600  1.0000
  O   O12       1.0  0.25090  0.66370  0.58600  1.0000
  O   O13       1.0  0.75090  0.83630  0.41400  1.0000
  O   O14       1.0  0.25090  0.83630  0.08600  1.0000
  O   O15       1.0  0.75090  0.66370  0.91400  1.0000
  O   O16       1.0  0.74910  0.33630  0.41400  1.0000
  O   O17       1.0  0.85300  0.43370  0.66670  1.0000
  O   O18       1.0  0.35300  0.43370  0.83330  1.0000
  O   O19       1.0  0.85300  0.06630  0.16670  1.0000
  O   O20       1.0  0.64700  0.93370  0.66670  1.0000
  O   O21       1.0  0.14700  0.56630  0.33330  1.0000
  O   O22       1.0  0.64700  0.56630  0.16670  1.0000
  O   O23       1.0  0.14700  0.93370  0.83330  1.0000
  O   O24       1.0  0.35300  0.06630  0.33330  1.0000
  O   O25       1.0  0.84470  0.35350  0.57110  1.0000
  O   O26       1.0  0.34470  0.35350  0.92890  1.0000
  O   O27       1.0  0.84470  0.14650  0.07110  1.0000
  O   O28       1.0  0.65530  0.85350  0.57110  1.0000
  O   O29       1.0  0.15530  0.64650  0.42890  1.0000
  O   O30       1.0  0.65530  0.64650  0.07110  1.0000
  O   O31       1.0  0.15530  0.85350  0.92890  1.0000
  O   O32       1.0  0.34470  0.14650  0.42890  1.0000
  O   O33       1.0  0.11900  0.37580  0.84990  1.0000
  O   O34       1.0  0.61900  0.37580  0.65010  1.0000
  O   O35       1.0  0.11900  0.12420  0.34990  1.0000
  O   O36       1.0  0.38100  0.87580  0.84990  1.0000
  O   O37       1.0  0.88100  0.62420  0.15010  1.0000
  O   O38       1.0  0.38100  0.62420  0.34990  1.0000
  O   O39       1.0  0.88100  0.87580  0.65010  1.0000
  O   O40       1.0  0.61900  0.12420  0.15010  1.0000
  O   O41       1.0  0.20000  0.25970  0.83450  1.0000
  O   O42       1.0  0.70000  0.25970  0.66550  1.0000
  O   O43       1.0  0.20000  0.24030  0.33450  1.0000
  O   O44       1.0  0.30000  0.75970  0.83450  1.0000
  O   O45       1.0  0.80000  0.74030  0.16550  1.0000
  O   O46       1.0  0.30000  0.74030  0.33450  1.0000
  O   O47       1.0  0.80000  0.75970  0.66550  1.0000
  O   O48       1.0  0.70000  0.24030  0.16550  1.0000
  N   N1        1.0  0.18310  0.00440  0.46960  1.0000
  N   N2        1.0  0.68310  0.00440  0.03040  1.0000
  N   N3        1.0  0.18310  0.49560  0.96960  1.0000
  N   N4        1.0  0.31690  0.50440  0.46960  1.0000
  N   N5        1.0  0.81690  0.99560  0.53040  1.0000
  N   N6        1.0  0.31690  0.99560  0.96960  1.0000
  N   N7        1.0  0.81690  0.50440  0.03040  1.0000
  N   N8        1.0  0.68310  0.49560  0.53040  1.0000
  C   C1        1.0  0.23030  0.94250  0.43860  1.0000
  C   C2        1.0  0.73030  0.94250  0.06140  1.0000
  C   C3        1.0  0.23030  0.55750  0.93860  1.0000
  C   C4        1.0  0.26970  0.44250  0.43860  1.0000
  C   C5        1.0  0.76970  0.05750  0.56140  1.0000
  C   C6        1.0  0.26970  0.05750  0.93860  1.0000
  C   C7        1.0  0.76970  0.44250  0.06140  1.0000
  C   C8        1.0  0.73030  0.55750  0.56140  1.0000
  H   H1        1.0  0.27530  0.95460  0.40280  1.0000
  H   H2        1.0  0.77530  0.95460  0.09720  1.0000
  H   H3        1.0  0.27530  0.54540  0.90280  1.0000
  H   H4        1.0  0.22470  0.45460  0.40280  1.0000
  H   H5        1.0  0.72470  0.04540  0.59720  1.0000
  H   H6        1.0  0.22470  0.04540  0.90280  1.0000
  H   H7        1.0  0.72470  0.45460  0.09720  1.0000
  H   H8        1.0  0.77530  0.54540  0.59720  1.0000
  C   C9        1.0  0.21610  0.86100  0.45680  1.0000
  C   C10       1.0  0.71610  0.86100  0.04320  1.0000
  C   C11       1.0  0.21610  0.63900  0.95680  1.0000
  C   C12       1.0  0.28390  0.36100  0.45680  1.0000
  C   C13       1.0  0.78390  0.13900  0.54320  1.0000
  C   C14       1.0  0.28390  0.13900  0.95680  1.0000
  C   C15       1.0  0.78390  0.36100  0.04320  1.0000
  C   C16       1.0  0.71610  0.63900  0.54320  1.0000
  H   H9        1.0  0.25270  0.81990  0.43520  1.0000
  H   H10       1.0  0.75270  0.81990  0.06480  1.0000
  H   H11       1.0  0.25270  0.68010  0.93520  1.0000
  H   H12       1.0  0.24730  0.31990  0.43520  1.0000
  H   H13       1.0  0.74730  0.18010  0.56480  1.0000
  H   H14       1.0  0.24730  0.18010  0.93520  1.0000
  H   H15       1.0  0.74730  0.31990  0.06480  1.0000
  H   H16       1.0  0.75270  0.68010  0.56480  1.0000
  C   C17       1.0  0.14650  0.84240  0.50750  1.0000
  C   C18       1.0  0.64650  0.84240  0.99250  1.0000
  C   C19       1.0  0.14650  0.65760  0.00750  1.0000
  C   C20       1.0  0.35350  0.34240  0.50750  1.0000
  C   C21       1.0  0.85350  0.15760  0.49250  1.0000
  C   C22       1.0  0.35350  0.15760  0.00750  1.0000
  C   C23       1.0  0.85350  0.34240  0.99250  1.0000
  C   C24       1.0  0.64650  0.65760  0.49250  1.0000
  H   H17       1.0  0.13290  0.78830  0.51920  1.0000
  H   H18       1.0  0.63290  0.78830  0.98080  1.0000
  H   H19       1.0  0.13290  0.71170  0.01920  1.0000
  H   H20       1.0  0.36710  0.28830  0.51920  1.0000
  H   H21       1.0  0.86710  0.21170  0.48080  1.0000
  H   H22       1.0  0.36710  0.21170  0.01920  1.0000
  H   H23       1.0  0.86710  0.28830  0.98080  1.0000
  H   H24       1.0  0.63290  0.71170  0.48080  1.0000
  C   C25       1.0  0.09680  0.90640  0.54110  1.0000
  C   C26       1.0  0.59680  0.90640  0.95890  1.0000
  C   C27       1.0  0.09680  0.59360  0.04110  1.0000
  C   C28       1.0  0.40320  0.40640  0.54110  1.0000
  C   C29       1.0  0.90320  0.09360  0.45890  1.0000
  C   C30       1.0  0.40320  0.09360  0.04110  1.0000
  C   C31       1.0  0.90320  0.40640  0.95890  1.0000
  C   C32       1.0  0.59680  0.59360  0.45890  1.0000
  H   H25       1.0  0.05050  0.89570  0.57630  1.0000
  H   H26       1.0  0.55050  0.89570  0.92370  1.0000
  H   H27       1.0  0.05050  0.60430  0.07630  1.0000
  H   H28       1.0  0.44950  0.39570  0.57630  1.0000
  H   H29       1.0  0.94950  0.10430  0.42370  1.0000
  H   H30       1.0  0.44950  0.10430  0.07630  1.0000
  H   H31       1.0  0.94950  0.39570  0.92370  1.0000
  H   H32       1.0  0.55050  0.60430  0.42370  1.0000
  C   C33       1.0  0.11780  0.98700  0.52080  1.0000
  C   C34       1.0  0.61780  0.98700  0.97920  1.0000
  C   C35       1.0  0.11780  0.51300  0.02080  1.0000
  C   C36       1.0  0.38220  0.48700  0.52080  1.0000
  C   C37       1.0  0.88220  0.01300  0.47920  1.0000
  C   C38       1.0  0.38220  0.01300  0.02080  1.0000
  C   C39       1.0  0.88220  0.48700  0.97920  1.0000
  C   C40       1.0  0.61780  0.51300  0.47920  1.0000
  H   H33       1.0  0.08560  0.02980  0.54360  1.0000
  H   H34       1.0  0.58560  0.02980  0.95640  1.0000
  H   H35       1.0  0.08560  0.47020  0.04360  1.0000
  H   H36       1.0  0.41440  0.52980  0.54360  1.0000
  H   H37       1.0  0.91440  0.97020  0.45640  1.0000
  H   H38       1.0  0.41440  0.97020  0.04360  1.0000
  H   H39       1.0  0.91440  0.52980  0.95640  1.0000
  H   H40       1.0  0.58560  0.47020  0.45640  1.0000
  C   C41       1.0  0.17260  0.19820  0.56780  1.0000
  C   C42       1.0  0.67260  0.19820  0.93220  1.0000
  C   C43       1.0  0.17260  0.30180  0.06780  1.0000
  C   C44       1.0  0.32740  0.69820  0.56780  1.0000
  C   C45       1.0  0.82740  0.80180  0.43220  1.0000
  C   C46       1.0  0.32740  0.80180  0.06780  1.0000
  C   C47       1.0  0.82740  0.69820  0.93220  1.0000
  C   C48       1.0  0.67260  0.30180  0.43220  1.0000
  C   C49       1.0  0.11790  0.25160  0.61970  1.0000
  C   C50       1.0  0.61790  0.25160  0.88030  1.0000
  C   C51       1.0  0.11790  0.24840  0.11970  1.0000
  C   C52       1.0  0.38210  0.75160  0.61970  1.0000
  C   C53       1.0  0.88210  0.74840  0.38030  1.0000
  C   C54       1.0  0.38210  0.74840  0.11970  1.0000
  C   C55       1.0  0.88210  0.75160  0.88030  1.0000
  C   C56       1.0  0.61790  0.24840  0.38030  1.0000
  C   C57       1.0  0.15330  0.25910  0.68950  1.0000
  C   C58       1.0  0.65330  0.25910  0.81050  1.0000
  C   C59       1.0  0.15330  0.24090  0.18950  1.0000
  C   C60       1.0  0.34670  0.75910  0.68950  1.0000
  C   C61       1.0  0.84670  0.74090  0.31050  1.0000
  C   C62       1.0  0.34670  0.74090  0.18950  1.0000
  C   C63       1.0  0.84670  0.75910  0.81050  1.0000
  C   C64       1.0  0.65330  0.24090  0.31050  1.0000
  H   H41       1.0  0.21080  0.23260  0.70300  1.0000
  H   H42       1.0  0.71080  0.23260  0.79700  1.0000
  H   H43       1.0  0.21080  0.26740  0.20300  1.0000
  H   H44       1.0  0.28920  0.73260  0.70300  1.0000
  H   H45       1.0  0.78920  0.76740  0.29700  1.0000
  H   H46       1.0  0.28920  0.76740  0.20300  1.0000
  H   H47       1.0  0.78920  0.73260  0.79700  1.0000
  H   H48       1.0  0.71080  0.26740  0.29700  1.0000
  C   C65       1.0  0.10150  0.30680  0.73890  1.0000
  C   C66       1.0  0.60150  0.30680  0.76110  1.0000
  C   C67       1.0  0.10150  0.19320  0.23890  1.0000
  C   C68       1.0  0.39850  0.80680  0.73890  1.0000
  C   C69       1.0  0.89850  0.69320  0.26110  1.0000
  C   C70       1.0  0.39850  0.69320  0.23890  1.0000
  C   C71       1.0  0.89850  0.80680  0.76110  1.0000
  C   C72       1.0  0.60150  0.19320  0.26110  1.0000
  C   C73       1.0  0.88420  0.37830  0.62820  1.0000
  C   C74       1.0  0.38420  0.37830  0.87180  1.0000
  C   C75       1.0  0.88420  0.12170  0.12820  1.0000
  C   C76       1.0  0.61580  0.87830  0.62820  1.0000
  C   C77       1.0  0.11580  0.62170  0.37180  1.0000
  C   C78       1.0  0.61580  0.62170  0.12820  1.0000
  C   C79       1.0  0.11580  0.87830  0.87180  1.0000
  C   C80       1.0  0.38420  0.12170  0.37180  1.0000
  C   C81       1.0  0.97950  0.33670  0.64940  1.0000
  C   C82       1.0  0.47950  0.33670  0.85060  1.0000
  C   C83       1.0  0.97950  0.16330  0.14940  1.0000
  C   C84       1.0  0.52050  0.83670  0.64940  1.0000
  C   C85       1.0  0.02050  0.66330  0.35060  1.0000
  C   C86       1.0  0.52050  0.66330  0.14940  1.0000
  C   C87       1.0  0.02050  0.83670  0.85060  1.0000
  C   C88       1.0  0.47950  0.16330  0.35060  1.0000
  C   C89       1.0  0.02990  0.28960  0.59960  1.0000
  C   C90       1.0  0.52990  0.28960  0.90040  1.0000
  C   C91       1.0  0.02990  0.21040  0.09960  1.0000
  C   C92       1.0  0.47010  0.78960  0.59960  1.0000
  C   C93       1.0  0.97010  0.71040  0.40040  1.0000
  C   C94       1.0  0.47010  0.71040  0.09960  1.0000
  C   C95       1.0  0.97010  0.78960  0.90040  1.0000
  C   C96       1.0  0.52990  0.21040  0.40040  1.0000
  H   H49       1.0  0.00560  0.28350  0.55350  1.0000
  H   H50       1.0  0.50560  0.28350  0.94650  1.0000
  H   H51       1.0  0.00560  0.21650  0.05350  1.0000
  H   H52       1.0  0.49440  0.78350  0.55350  1.0000
  H   H53       1.0  0.99440  0.71650  0.44650  1.0000
  H   H54       1.0  0.49440  0.71650  0.05350  1.0000
  H   H55       1.0  0.99440  0.78350  0.94650  1.0000
  H   H56       1.0  0.50560  0.21650  0.44650  1.0000
  C   C97       1.0  0.01530  0.34630  0.71970  1.0000
  C   C98       1.0  0.51530  0.34630  0.78030  1.0000
  C   C99       1.0  0.01530  0.15370  0.21970  1.0000
  C   C100      1.0  0.48470  0.84630  0.71970  1.0000
  C   C101      1.0  0.98470  0.65370  0.28030  1.0000
  C   C102      1.0  0.48470  0.65370  0.21970  1.0000
  C   C103      1.0  0.98470  0.84630  0.78030  1.0000
  C   C104      1.0  0.51530  0.15370  0.28030  1.0000
  H   H57       1.0  0.98180  0.37860  0.75240  1.0000
  H   H58       1.0  0.48180  0.37860  0.74760  1.0000
  H   H59       1.0  0.98180  0.12140  0.25240  1.0000
  H   H60       1.0  0.51820  0.87860  0.75240  1.0000
  H   H61       1.0  0.01820  0.62140  0.24760  1.0000
  H   H62       1.0  0.51820  0.62140  0.25240  1.0000
  H   H63       1.0  0.01820  0.87860  0.74760  1.0000
  H   H64       1.0  0.48180  0.12140  0.24760  1.0000
  C   C105      1.0  0.14380  0.31340  0.81280  1.0000
  C   C106      1.0  0.64380  0.31340  0.68720  1.0000
  C   C107      1.0  0.14380  0.18660  0.31280  1.0000
  C   C108      1.0  0.35620  0.81340  0.81280  1.0000
  C   C109      1.0  0.85620  0.68660  0.18720  1.0000
  C   C110      1.0  0.35620  0.68660  0.31280  1.0000
  C   C111      1.0  0.85620  0.81340  0.68720  1.0000
  C   C112      1.0  0.64380  0.18660  0.18720  1.0000
