data_image0
_chemical_formula_structural       Np8O48C24H8C16H8C8H8C8H8C8
_chemical_formula_sum              "Np8 O48 C64 H32"
_cell_length_a       12.1584
_cell_length_b       12.1584
_cell_length_c       17.8082
_cell_angle_alpha    90
_cell_angle_beta     90
_cell_angle_gamma    90

_space_group_name_H-M_alt    "P 1"
_space_group_IT_number       1

loop_
  _space_group_symop_operation_xyz
  'x, y, z'

loop_
  _atom_site_type_symbol
  _atom_site_label
  _atom_site_symmetry_multiplicity
  _atom_site_fract_x
  _atom_site_fract_y
  _atom_site_fract_z
  _atom_site_occupancy
  Np  Np1       1.0  0.39685  0.42142  0.22130  1.0000
  Np  Np2       1.0  0.10315  0.07858  0.22130  1.0000
  Np  Np3       1.0  0.57858  0.89685  0.72130  1.0000
  Np  Np4       1.0  0.92142  0.60315  0.72130  1.0000
  Np  Np5       1.0  0.60315  0.57858  0.77870  1.0000
  Np  Np6       1.0  0.89685  0.92142  0.77870  1.0000
  Np  Np7       1.0  0.42142  0.10315  0.27870  1.0000
  Np  Np8       1.0  0.07858  0.39685  0.27870  1.0000
  O   O1        1.0  0.24630  0.40280  0.20480  1.0000
  O   O2        1.0  0.25370  0.09720  0.20480  1.0000
  O   O3        1.0  0.59720  0.74630  0.70480  1.0000
  O   O4        1.0  0.90280  0.75370  0.70480  1.0000
  O   O5        1.0  0.75370  0.59720  0.79520  1.0000
  O   O6        1.0  0.74630  0.90280  0.79520  1.0000
  O   O7        1.0  0.40280  0.25370  0.29520  1.0000
  O   O8        1.0  0.09720  0.24630  0.29520  1.0000
  O   O9        1.0  0.54510  0.44290  0.23580  1.0000
  O   O10       1.0  0.95490  0.05710  0.23580  1.0000
  O   O11       1.0  0.55710  0.04510  0.73580  1.0000
  O   O12       1.0  0.94290  0.45490  0.73580  1.0000
  O   O13       1.0  0.45490  0.55710  0.76420  1.0000
  O   O14       1.0  0.04510  0.94290  0.76420  1.0000
  O   O15       1.0  0.44290  0.95490  0.26420  1.0000
  O   O16       1.0  0.05710  0.54510  0.26420  1.0000
  O   O17       1.0  0.41400  0.52180  0.09870  1.0000
  O   O18       1.0  0.08600  0.97820  0.09870  1.0000
  O   O19       1.0  0.47820  0.91400  0.59870  1.0000
  O   O20       1.0  0.02180  0.58600  0.59870  1.0000
  O   O21       1.0  0.58600  0.47820  0.90130  1.0000
  O   O22       1.0  0.91400  0.02180  0.90130  1.0000
  O   O23       1.0  0.52180  0.08600  0.40130  1.0000
  O   O24       1.0  0.97820  0.41400  0.40130  1.0000
  O   O25       1.0  0.37880  0.62360  0.19730  1.0000
  O   O26       1.0  0.12120  0.87640  0.19730  1.0000
  O   O27       1.0  0.37640  0.87880  0.69730  1.0000
  O   O28       1.0  0.12360  0.62120  0.69730  1.0000
  O   O29       1.0  0.62120  0.37640  0.80270  1.0000
  O   O30       1.0  0.87880  0.12360  0.80270  1.0000
  O   O31       1.0  0.62360  0.12120  0.30270  1.0000
  O   O32       1.0  0.87640  0.37880  0.30270  1.0000
  O   O33       1.0  0.48850  0.87380  0.84180  1.0000
  O   O34       1.0  0.01150  0.62620  0.84180  1.0000
  O   O35       1.0  0.12620  0.98850  0.34180  1.0000
  O   O36       1.0  0.37380  0.51150  0.34180  1.0000
  O   O37       1.0  0.51150  0.12620  0.15820  1.0000
  O   O38       1.0  0.98850  0.37380  0.15820  1.0000
  O   O39       1.0  0.87380  0.01150  0.65820  1.0000
  O   O40       1.0  0.62620  0.48850  0.65820  1.0000
  O   O41       1.0  0.55870  0.71120  0.87210  1.0000
  O   O42       1.0  0.94130  0.78880  0.87210  1.0000
  O   O43       1.0  0.28880  0.05870  0.37210  1.0000
  O   O44       1.0  0.21120  0.44130  0.37210  1.0000
  O   O45       1.0  0.44130  0.28880  0.12790  1.0000
  O   O46       1.0  0.05870  0.21120  0.12790  1.0000
  O   O47       1.0  0.71120  0.94130  0.62790  1.0000
  O   O48       1.0  0.78880  0.55870  0.62790  1.0000
  C   C1        1.0  0.39900  0.61520  0.12840  1.0000
  C   C2        1.0  0.10100  0.88480  0.12840  1.0000
  C   C3        1.0  0.38480  0.89900  0.62840  1.0000
  C   C4        1.0  0.11520  0.60100  0.62840  1.0000
  C   C5        1.0  0.60100  0.38480  0.87160  1.0000
  C   C6        1.0  0.89900  0.11520  0.87160  1.0000
  C   C7        1.0  0.61520  0.10100  0.37160  1.0000
  C   C8        1.0  0.88480  0.39900  0.37160  1.0000
  C   C9        1.0  0.40520  0.71640  0.08110  1.0000
  C   C10       1.0  0.09480  0.78360  0.08110  1.0000
  C   C11       1.0  0.28360  0.90520  0.58110  1.0000
  C   C12       1.0  0.21640  0.59480  0.58110  1.0000
  C   C13       1.0  0.59480  0.28360  0.91890  1.0000
  C   C14       1.0  0.90520  0.21640  0.91890  1.0000
  C   C15       1.0  0.71640  0.09480  0.41890  1.0000
  C   C16       1.0  0.78360  0.40520  0.41890  1.0000
  C   C17       1.0  0.44590  0.70950  0.00780  1.0000
  C   C18       1.0  0.05410  0.79050  0.00780  1.0000
  C   C19       1.0  0.29050  0.94590  0.50780  1.0000
  C   C20       1.0  0.20950  0.55410  0.50780  1.0000
  C   C21       1.0  0.55410  0.29050  0.99220  1.0000
  C   C22       1.0  0.94590  0.20950  0.99220  1.0000
  C   C23       1.0  0.70950  0.05410  0.49220  1.0000
  C   C24       1.0  0.79050  0.44590  0.49220  1.0000
  H   H1        1.0  0.47070  0.64080  0.98890  1.0000
  H   H2        1.0  0.02930  0.85920  0.98890  1.0000
  H   H3        1.0  0.35920  0.97070  0.48890  1.0000
  H   H4        1.0  0.14080  0.52930  0.48890  1.0000
  H   H5        1.0  0.52930  0.35920  0.01110  1.0000
  H   H6        1.0  0.97070  0.14080  0.01110  1.0000
  H   H7        1.0  0.64080  0.02930  0.51110  1.0000
  H   H8        1.0  0.85920  0.47070  0.51110  1.0000
  C   C25       1.0  0.45030  0.80180  0.96290  1.0000
  C   C26       1.0  0.04970  0.69820  0.96290  1.0000
  C   C27       1.0  0.19820  0.95030  0.46290  1.0000
  C   C28       1.0  0.30180  0.54970  0.46290  1.0000
  C   C29       1.0  0.54970  0.19820  0.03710  1.0000
  C   C30       1.0  0.95030  0.30180  0.03710  1.0000
  C   C31       1.0  0.80180  0.04970  0.53710  1.0000
  C   C32       1.0  0.69820  0.45030  0.53710  1.0000
  C   C33       1.0  0.41030  0.90170  0.99020  1.0000
  C   C34       1.0  0.08970  0.59830  0.99020  1.0000
  C   C35       1.0  0.09830  0.91030  0.49020  1.0000
  C   C36       1.0  0.40170  0.58970  0.49020  1.0000
  C   C37       1.0  0.58970  0.09830  0.00980  1.0000
  C   C38       1.0  0.91030  0.40170  0.00980  1.0000
  C   C39       1.0  0.90170  0.08970  0.50980  1.0000
  C   C40       1.0  0.59830  0.41030  0.50980  1.0000
  H   H9        1.0  0.40860  0.96430  0.95830  1.0000
  H   H10       1.0  0.09140  0.53570  0.95830  1.0000
  H   H11       1.0  0.03570  0.90860  0.45830  1.0000
  H   H12       1.0  0.46430  0.59140  0.45830  1.0000
  H   H13       1.0  0.59140  0.03570  0.04170  1.0000
  H   H14       1.0  0.90860  0.46430  0.04170  1.0000
  H   H15       1.0  0.96430  0.09140  0.54170  1.0000
  H   H16       1.0  0.53570  0.40860  0.54170  1.0000
  C   C41       1.0  0.37310  0.91020  0.06340  1.0000
  C   C42       1.0  0.12690  0.58980  0.06340  1.0000
  C   C43       1.0  0.08980  0.87310  0.56340  1.0000
  C   C44       1.0  0.41020  0.62690  0.56340  1.0000
  C   C45       1.0  0.62690  0.08980  0.93660  1.0000
  C   C46       1.0  0.87310  0.41020  0.93660  1.0000
  C   C47       1.0  0.91020  0.12690  0.43660  1.0000
  C   C48       1.0  0.58980  0.37310  0.43660  1.0000
  H   H17       1.0  0.34880  0.97900  0.08250  1.0000
  H   H18       1.0  0.15120  0.52100  0.08250  1.0000
  H   H19       1.0  0.02100  0.84880  0.58250  1.0000
  H   H20       1.0  0.47900  0.65120  0.58250  1.0000
  H   H21       1.0  0.65120  0.02100  0.91750  1.0000
  H   H22       1.0  0.84880  0.47900  0.91750  1.0000
  H   H23       1.0  0.97900  0.15120  0.41750  1.0000
  H   H24       1.0  0.52100  0.34880  0.41750  1.0000
  C   C49       1.0  0.37180  0.81710  0.10910  1.0000
  C   C50       1.0  0.12820  0.68290  0.10910  1.0000
  C   C51       1.0  0.18290  0.87180  0.60910  1.0000
  C   C52       1.0  0.31710  0.62820  0.60910  1.0000
  C   C53       1.0  0.62820  0.18290  0.89090  1.0000
  C   C54       1.0  0.87180  0.31710  0.89090  1.0000
  C   C55       1.0  0.81710  0.12820  0.39090  1.0000
  C   C56       1.0  0.68290  0.37180  0.39090  1.0000
  H   H25       1.0  0.34780  0.82280  0.15970  1.0000
  H   H26       1.0  0.15220  0.67720  0.15970  1.0000
  H   H27       1.0  0.17720  0.84780  0.65970  1.0000
  H   H28       1.0  0.32280  0.65220  0.65970  1.0000
  H   H29       1.0  0.65220  0.17720  0.84030  1.0000
  H   H30       1.0  0.84780  0.32280  0.84030  1.0000
  H   H31       1.0  0.82280  0.15220  0.34030  1.0000
  H   H32       1.0  0.67720  0.34780  0.34030  1.0000
  C   C57       1.0  0.50210  0.79510  0.88640  1.0000
  C   C58       1.0  0.99790  0.70490  0.88640  1.0000
  C   C59       1.0  0.20490  0.00210  0.38640  1.0000
  C   C60       1.0  0.29510  0.49790  0.38640  1.0000
  C   C61       1.0  0.49790  0.20490  0.11360  1.0000
  C   C62       1.0  0.00210  0.29510  0.11360  1.0000
  C   C63       1.0  0.79510  0.99790  0.61360  1.0000
  C   C64       1.0  0.70490  0.50210  0.61360  1.0000
