data_image0
_chemical_formula_structural       Co2O18C4H2C4H2C4H2C6H12
_chemical_formula_sum              "Co2 O18 C18 H18"
_cell_length_a       7.1517
_cell_length_b       10.5393
_cell_length_c       10.5415
_cell_angle_alpha    110.783
_cell_angle_beta     91.417
_cell_angle_gamma    102.519

_space_group_name_H-M_alt    "P 1"
_space_group_IT_number       1

loop_
  _space_group_symop_operation_xyz
  'x, y, z'

loop_
  _atom_site_type_symbol
  _atom_site_label
  _atom_site_symmetry_multiplicity
  _atom_site_fract_x
  _atom_site_fract_y
  _atom_site_fract_z
  _atom_site_occupancy
  Co  Co1       1.0  0.50000  0.50000  0.50000  1.0000
  Co  Co2       1.0  0.50000  0.00000  0.00000  1.0000
  O   O1        1.0  0.39420  0.31168  0.52552  1.0000
  O   O2        1.0  0.60580  0.68832  0.47448  1.0000
  O   O3        1.0  0.66410  0.41130  0.34592  1.0000
  O   O4        1.0  0.33590  0.58870  0.65408  1.0000
  O   O5        1.0  0.28600  0.45248  0.33624  1.0000
  O   O6        1.0  0.71400  0.54752  0.66376  1.0000
  O   O7        1.0  0.24670  0.04480  0.06395  1.0000
  O   O8        1.0  0.75330  0.95520  0.93605  1.0000
  O   O9        1.0  0.47390  0.08632  0.84908  1.0000
  O   O10       1.0  0.52610  0.91368  0.15092  1.0000
  O   O11       1.0  0.34800  0.86363  0.80026  1.0000
  O   O12       1.0  0.65200  0.13637  0.19974  1.0000
  O   O13       1.0  0.22670  0.19145  0.32103  1.0000
  O   O14       1.0  0.77330  0.80855  0.67897  1.0000
  O   O15       1.0  0.99440  0.57776  0.33297  1.0000
  O   O16       1.0  0.00560  0.42224  0.66703  1.0000
  O   O17       1.0  0.89370  0.68905  0.21078  1.0000
  O   O18       1.0  0.10630  0.31095  0.78922  1.0000
  C   C1        1.0  0.26220  0.06950  0.46780  1.0000
  C   C2        1.0  0.73780  0.93050  0.53220  1.0000
  C   C3        1.0  0.33550  0.07640  0.59450  1.0000
  C   C4        1.0  0.66450  0.92360  0.40550  1.0000
  H   H1        1.0  0.40770  0.16100  0.65730  1.0000
  H   H2        1.0  0.59230  0.83900  0.34270  1.0000
  C   C5        1.0  0.30130  0.95740  0.62750  1.0000
  C   C6        1.0  0.69870  0.04260  0.37250  1.0000
  C   C7        1.0  0.19510  0.83060  0.53260  1.0000
  C   C8        1.0  0.80490  0.16940  0.46740  1.0000
  H   H3        1.0  0.17330  0.75070  0.55410  1.0000
  H   H4        1.0  0.82670  0.24930  0.44590  1.0000
  C   C9        1.0  0.12130  0.82230  0.40570  1.0000
  C   C10       1.0  0.87870  0.17770  0.59430  1.0000
  C   C11       1.0  0.15400  0.94280  0.37450  1.0000
  C   C12       1.0  0.84600  0.05720  0.62550  1.0000
  H   H5        1.0  0.10310  0.93820  0.29060  1.0000
  H   H6        1.0  0.89690  0.06180  0.70940  1.0000
  C   C13       1.0  0.29730  0.19970  0.43540  1.0000
  C   C14       1.0  0.70270  0.80030  0.56460  1.0000
  C   C15       1.0  0.37880  0.97000  0.76570  1.0000
  C   C16       1.0  0.62120  0.03000  0.23430  1.0000
  C   C17       1.0  0.99520  0.68590  0.30870  1.0000
  C   C18       1.0  0.00480  0.31410  0.69130  1.0000
  H   H7        1.0  0.24900  0.09100  0.15950  1.0000
  H   H8        1.0  0.75100  0.90900  0.84050  1.0000
  H   H9        1.0  0.17900  0.49300  0.34100  1.0000
  H   H10       1.0  0.82100  0.50700  0.65900  1.0000
  H   H11       1.0  0.78300  0.46400  0.33700  1.0000
  H   H12       1.0  0.21700  0.53600  0.66300  1.0000
  H   H13       1.0  0.23600  0.35850  0.32800  1.0000
  H   H14       1.0  0.76400  0.64150  0.67200  1.0000
  H   H15       1.0  0.66400  0.31620  0.30500  1.0000
  H   H16       1.0  0.33600  0.68380  0.69500  1.0000
  H   H17       1.0  0.18200  0.09300  0.02300  1.0000
  H   H18       1.0  0.81800  0.90700  0.97700  1.0000
