data_image0
_chemical_formula_structural       FeO8N10C42H36Mn2
_chemical_formula_sum              "Fe1 O8 N10 C42 H36 Mn2"
_cell_length_a       9.877
_cell_length_b       11.162
_cell_length_c       12.536
_cell_angle_alpha    87.32
_cell_angle_beta     70.98
_cell_angle_gamma    74.77

_space_group_name_H-M_alt    "P 1"
_space_group_IT_number       1

loop_
  _space_group_symop_operation_xyz
  'x, y, z'

loop_
  _atom_site_type_symbol
  _atom_site_label
  _atom_site_symmetry_multiplicity
  _atom_site_fract_x
  _atom_site_fract_y
  _atom_site_fract_z
  _atom_site_occupancy
  Fe  Fe1       1.0  0.00000  0.00000  0.00000  1.0000
  O   O1        1.0  0.63580  0.50740  0.00980  1.0000
  O   O2        1.0  0.36420  0.49260  0.99020  1.0000
  O   O3        1.0  0.18970  0.49100  0.70010  1.0000
  O   O4        1.0  0.81030  0.50900  0.29990  1.0000
  O   O5        1.0  0.45570  0.41250  0.19890  1.0000
  O   O6        1.0  0.54430  0.58750  0.80110  1.0000
  O   O7        1.0  0.99470  0.27170  0.51750  1.0000
  O   O8        1.0  0.00530  0.72830  0.48250  1.0000
  N   N1        1.0  0.64840  0.30650  0.88580  1.0000
  N   N2        1.0  0.35160  0.69350  0.11420  1.0000
  N   N3        1.0  0.46630  0.22470  0.05710  1.0000
  N   N4        1.0  0.53370  0.77530  0.94290  1.0000
  N   N5        1.0  0.75760  0.24470  0.07490  1.0000
  N   N6        1.0  0.24240  0.75530  0.92510  1.0000
  N   N7        1.0  0.24410  0.13390  0.87720  1.0000
  N   N8        1.0  0.75590  0.86610  0.12280  1.0000
  N   N9        1.0  0.09400  0.99680  0.21430  1.0000
  N   N10       1.0  0.90600  0.00320  0.78570  1.0000
  C   C1        1.0  0.77590  0.49890  0.93710  1.0000
  C   C2        1.0  0.22410  0.50110  0.06290  1.0000
  C   C3        1.0  0.85300  0.58110  0.95130  1.0000
  C   C4        1.0  0.14700  0.41890  0.04870  1.0000
  C   C5        1.0  0.99180  0.58130  0.87510  1.0000
  C   C6        1.0  0.00820  0.41870  0.12490  1.0000
  C   C7        1.0  0.05520  0.49630  0.78270  1.0000
  C   C8        1.0  0.94480  0.50370  0.21730  1.0000
  C   C9        1.0  0.28330  0.55530  0.72340  1.0000
  C   C10       1.0  0.71670  0.44470  0.27660  1.0000
  C   C11       1.0  0.98120  0.41270  0.76890  1.0000
  C   C12       1.0  0.01880  0.58730  0.23110  1.0000
  C   C13       1.0  0.84180  0.41240  0.84460  1.0000
  C   C14       1.0  0.15820  0.58760  0.15540  1.0000
  C   C15       1.0  0.76840  0.32760  0.81780  1.0000
  C   C16       1.0  0.23160  0.67240  0.18220  1.0000
  C   C17       1.0  0.57390  0.22300  0.85390  1.0000
  C   C18       1.0  0.42610  0.77700  0.14610  1.0000
  C   C19       1.0  0.53060  0.14270  0.95340  1.0000
  C   C20       1.0  0.46940  0.85730  0.04660  1.0000
  C   C21       1.0  0.35700  0.20630  0.13880  1.0000
  C   C22       1.0  0.64300  0.79370  0.86120  1.0000
  C   C23       1.0  0.29280  0.27500  0.24650  1.0000
  C   C24       1.0  0.70720  0.72500  0.75350  1.0000
  C   C25       1.0  0.17330  0.24110  0.32700  1.0000
  C   C26       1.0  0.82670  0.75890  0.67300  1.0000
  C   C27       1.0  0.11040  0.29930  0.43220  1.0000
  C   C28       1.0  0.88960  0.70070  0.56780  1.0000
  C   C29       1.0  0.92520  0.19050  0.48650  1.0000
  C   C30       1.0  0.07480  0.80950  0.51350  1.0000
  C   C31       1.0  0.16510  0.39360  0.45900  1.0000
  C   C32       1.0  0.83490  0.60640  0.54100  1.0000
  C   C33       1.0  0.28080  0.42750  0.38090  1.0000
  C   C34       1.0  0.71920  0.57250  0.61910  1.0000
  C   C35       1.0  0.34760  0.37100  0.27150  1.0000
  C   C36       1.0  0.65240  0.62900  0.72850  1.0000
  C   C37       1.0  0.85160  0.15410  0.04840  1.0000
  C   C38       1.0  0.14840  0.84590  0.95160  1.0000
  C   C39       1.0  0.15110  0.08640  0.92300  1.0000
  C   C40       1.0  0.84890  0.91360  0.07700  1.0000
  C   C41       1.0  0.05670  0.99850  0.13540  1.0000
  C   C42       1.0  0.94330  0.00150  0.86460  1.0000
  H   H1        1.0  0.81010  0.63860  0.01440  1.0000
  H   H2        1.0  0.18990  0.36140  0.98560  1.0000
  H   H3        1.0  0.04280  0.63860  0.88580  1.0000
  H   H4        1.0  0.95720  0.36140  0.11420  1.0000
  H   H5        1.0  0.26850  0.55570  0.80210  1.0000
  H   H6        1.0  0.73150  0.44430  0.19790  1.0000
  H   H7        1.0  0.38390  0.51480  0.68340  1.0000
  H   H8        1.0  0.61610  0.48520  0.31660  1.0000
  H   H9        1.0  0.26040  0.63840  0.70020  1.0000
  H   H10       1.0  0.73960  0.36160  0.29980  1.0000
  H   H11       1.0  0.02570  0.35410  0.70670  1.0000
  H   H12       1.0  0.97430  0.64590  0.29330  1.0000
  H   H13       1.0  0.81100  0.28500  0.74600  1.0000
  H   H14       1.0  0.18900  0.71500  0.25400  1.0000
  H   H15       1.0  0.63950  0.17240  0.78930  1.0000
  H   H16       1.0  0.36050  0.82760  0.21070  1.0000
  H   H17       1.0  0.48800  0.26990  0.83790  1.0000
  H   H18       1.0  0.51200  0.73010  0.16210  1.0000
  H   H19       1.0  0.61560  0.08090  0.95720  1.0000
  H   H20       1.0  0.38440  0.91910  0.04280  1.0000
  H   H21       1.0  0.45920  0.10390  0.94570  1.0000
  H   H22       1.0  0.54080  0.89610  0.05430  1.0000
  H   H23       1.0  0.31460  0.14260  0.12800  1.0000
  H   H24       1.0  0.68540  0.85740  0.87200  1.0000
  H   H25       1.0  0.13600  0.17750  0.30840  1.0000
  H   H26       1.0  0.86400  0.82250  0.69160  1.0000
  H   H27       1.0  0.95160  0.18550  0.40660  1.0000
  H   H28       1.0  0.04840  0.81450  0.59340  1.0000
  H   H29       1.0  0.82070  0.22090  0.51890  1.0000
  H   H30       1.0  0.17930  0.77910  0.48110  1.0000
  H   H31       1.0  0.95690  0.11030  0.51310  1.0000
  H   H32       1.0  0.04310  0.88970  0.48690  1.0000
  H   H33       1.0  0.12150  0.43410  0.53170  1.0000
  H   H34       1.0  0.87850  0.56590  0.46830  1.0000
  H   H35       1.0  0.31710  0.49100  0.40100  1.0000
  H   H36       1.0  0.68290  0.50900  0.59900  1.0000
  Mn  Mn1       1.0  0.55985  0.36435  0.04708  1.0000
  Mn  Mn2       1.0  0.44015  0.63565  0.95292  1.0000
