data_image0
_chemical_formula_structural       ZnO6CHCHCHO2CHO2CHO2CHZn
_chemical_formula_sum              "Zn2 O12 C6 H6"
_cell_length_a       8.029
_cell_length_b       8.027
_cell_length_c       8.722
_cell_angle_alpha    62.81
_cell_angle_beta     63.22
_cell_angle_gamma    59.99

_space_group_name_H-M_alt    "P 1"
_space_group_IT_number       1

loop_
  _space_group_symop_operation_xyz
  'x, y, z'

loop_
  _atom_site_type_symbol
  _atom_site_label
  _atom_site_symmetry_multiplicity
  _atom_site_fract_x
  _atom_site_fract_y
  _atom_site_fract_z
  _atom_site_occupancy
  Zn  Zn1       1.0  0.23266  0.26259  0.59959  1.0000
  O   O1        1.0  0.18720  0.98930  0.76980  1.0000
  O   O2        1.0  0.36510  0.23130  0.77010  1.0000
  O   O3        1.0  0.00130  0.80940  0.94330  1.0000
  O   O4        1.0  0.07710  0.29760  0.43950  1.0000
  O   O5        1.0  0.89320  0.48830  0.24810  1.0000
  O   O6        1.0  0.56680  0.04750  0.95180  1.0000
  C   C1        1.0  0.96680  0.46520  0.35610  1.0000
  H   H1        1.0  0.93970  0.58000  0.37900  1.0000
  C   C2        1.0  0.01860  0.97030  0.84200  1.0000
  H   H2        1.0  0.90490  0.08170  0.81710  1.0000
  C   C3        1.0  0.47890  0.06860  0.85510  1.0000
  H   H3        1.0  0.49830  0.95050  0.84270  1.0000
  O   O7        1.0  0.69200  0.90560  0.27270  1.0000
  O   O8        1.0  0.51210  0.09150  0.45650  1.0000
  C   C4        1.0  0.53300  0.02650  0.34150  1.0000
  H   H4        1.0  0.42150  0.07180  0.30460  1.0000
  O   O9        1.0  0.45340  0.72520  0.25920  1.0000
  O   O10       1.0  0.27550  0.53670  0.44280  1.0000
  C   C5        1.0  0.44210  0.54980  0.34480  1.0000
  H   H5        1.0  0.55660  0.43410  0.33370  1.0000
  O   O11       1.0  0.76620  0.61510  0.93480  1.0000
  O   O12       1.0  0.95290  0.42910  0.74730  1.0000
  C   C6        1.0  0.92800  0.50750  0.84920  1.0000
  H   H6        1.0  0.04410  0.48540  0.86710  1.0000
  Zn  Zn2       1.0  0.72833  0.76739  0.09959  1.0000
