data_image0
_chemical_formula_structural       Cd12Cl4O4C4H4N4C4H12C4H12N4H4C4H12C4H12C8H4C8H4C8H4C12H4C4H4C4H4C4H4C8H4C4H4C8H4C4H4C4O8C12H4C4H4C4H4C4H4C8H4C4H4C8H4C4H4C4O8C12H4C4H4C4H4C4H4C8H4C4H4C8H4C4H4C4O8C8H4C8H4C8H4C12H4C4H4C4H4C4H4C8H4C4H4C8H4C4H4C4O8C12H4C4H4C4H4C4H4C8H4C4H4C8H4C4H4C4O8C12H4C4H4C4H4C4H4C8H4C4H4C8H4C4H4C4O8
_chemical_formula_sum              "Cd12 Cl4 O52 C380 H272 N8"
_cell_length_a       30.7832
_cell_length_b       11.4149
_cell_length_c       23.7561
_cell_angle_alpha    90
_cell_angle_beta     101.419
_cell_angle_gamma    90

_space_group_name_H-M_alt    "P 1"
_space_group_IT_number       1

loop_
  _space_group_symop_operation_xyz
  'x, y, z'

loop_
  _atom_site_type_symbol
  _atom_site_label
  _atom_site_symmetry_multiplicity
  _atom_site_fract_x
  _atom_site_fract_y
  _atom_site_fract_z
  _atom_site_occupancy
  Cd  Cd1       1.0  0.04593  0.81761  0.62750  1.0000
  Cd  Cd2       1.0  0.04593  0.18239  0.12750  1.0000
  Cd  Cd3       1.0  0.54593  0.31761  0.62750  1.0000
  Cd  Cd4       1.0  0.54593  0.68239  0.12750  1.0000
  Cd  Cd5       1.0  0.05843  0.04601  0.53335  1.0000
  Cd  Cd6       1.0  0.05843  0.95399  0.03335  1.0000
  Cd  Cd7       1.0  0.55843  0.54601  0.53335  1.0000
  Cd  Cd8       1.0  0.55843  0.45399  0.03335  1.0000
  Cd  Cd9       1.0  0.02680  0.99289  0.74981  1.0000
  Cd  Cd10      1.0  0.02680  0.00711  0.24981  1.0000
  Cd  Cd11      1.0  0.52680  0.49289  0.74981  1.0000
  Cd  Cd12      1.0  0.52680  0.50711  0.24981  1.0000
  Cl  Cl1       1.0  0.04826  0.05276  0.63575  1.0000
  Cl  Cl2       1.0  0.04826  0.94724  0.13575  1.0000
  Cl  Cl3       1.0  0.54826  0.55276  0.63575  1.0000
  Cl  Cl4       1.0  0.54826  0.44724  0.13575  1.0000
  O   O1        1.0  0.05686  0.61960  0.62770  1.0000
  O   O2        1.0  0.05686  0.38040  0.12770  1.0000
  O   O3        1.0  0.55686  0.11960  0.62770  1.0000
  O   O4        1.0  0.55686  0.88040  0.12770  1.0000
  C   C1        1.0  0.02750  0.54430  0.62110  1.0000
  C   C2        1.0  0.02750  0.45570  0.12110  1.0000
  C   C3        1.0  0.52750  0.04430  0.62110  1.0000
  C   C4        1.0  0.52750  0.95570  0.12110  1.0000
  H   H1        1.0  0.99760  0.57040  0.61310  1.0000
  H   H2        1.0  0.99760  0.42960  0.11310  1.0000
  H   H3        1.0  0.49760  0.07040  0.61310  1.0000
  H   H4        1.0  0.49760  0.92960  0.11310  1.0000
  N   N1        1.0  0.03470  0.42980  0.62430  1.0000
  N   N2        1.0  0.03470  0.57020  0.12430  1.0000
  N   N3        1.0  0.53470  0.92980  0.62430  1.0000
  N   N4        1.0  0.53470  0.07020  0.12430  1.0000
  C   C5        1.0  0.07910  0.38230  0.63960  1.0000
  C   C6        1.0  0.07910  0.61770  0.13960  1.0000
  C   C7        1.0  0.57910  0.88230  0.63960  1.0000
  C   C8        1.0  0.57910  0.11770  0.13960  1.0000
  H   H5        1.0  0.10000  0.44530  0.65420  1.0000
  H   H6        1.0  0.10000  0.55470  0.15420  1.0000
  H   H7        1.0  0.60000  0.94530  0.65420  1.0000
  H   H8        1.0  0.60000  0.05470  0.15420  1.0000
  H   H9        1.0  0.08740  0.34700  0.60560  1.0000
  H   H10       1.0  0.08740  0.65300  0.10560  1.0000
  H   H11       1.0  0.58740  0.84700  0.60560  1.0000
  H   H12       1.0  0.58740  0.15300  0.10560  1.0000
  H   H13       1.0  0.08010  0.32240  0.66940  1.0000
  H   H14       1.0  0.08010  0.67760  0.16940  1.0000
  H   H15       1.0  0.58010  0.82240  0.66940  1.0000
  H   H16       1.0  0.58010  0.17760  0.16940  1.0000
  C   C9        1.0  0.99820  0.34640  0.61360  1.0000
  C   C10       1.0  0.99820  0.65360  0.11360  1.0000
  C   C11       1.0  0.49820  0.84640  0.61360  1.0000
  C   C12       1.0  0.49820  0.15360  0.11360  1.0000
  H   H17       1.0  0.97010  0.38880  0.60340  1.0000
  H   H18       1.0  0.97010  0.61120  0.10340  1.0000
  H   H19       1.0  0.47010  0.88880  0.60340  1.0000
  H   H20       1.0  0.47010  0.11120  0.10340  1.0000
  H   H21       1.0  0.99840  0.29980  0.64830  1.0000
  H   H22       1.0  0.99840  0.70020  0.14830  1.0000
  H   H23       1.0  0.49840  0.79980  0.64830  1.0000
  H   H24       1.0  0.49840  0.20020  0.14830  1.0000
  H   H25       1.0  0.00170  0.29440  0.58200  1.0000
  H   H26       1.0  0.00170  0.70560  0.08200  1.0000
  H   H27       1.0  0.50170  0.79440  0.58200  1.0000
  H   H28       1.0  0.50170  0.20560  0.08200  1.0000
  N   N5        1.0  0.00967  0.86680  0.81960  1.0000
  N   N6        1.0  0.00967  0.13320  0.31960  1.0000
  N   N7        1.0  0.50967  0.36680  0.81960  1.0000
  N   N8        1.0  0.50967  0.63320  0.31960  1.0000
  H   H29       1.0  0.03230  0.87440  0.85180  1.0000
  H   H30       1.0  0.03230  0.12560  0.35180  1.0000
  H   H31       1.0  0.53230  0.37440  0.85180  1.0000
  H   H32       1.0  0.53230  0.62560  0.35180  1.0000
  C   C13       1.0  0.96840  0.90370  0.83700  1.0000
  C   C14       1.0  0.96840  0.09630  0.33700  1.0000
  C   C15       1.0  0.46840  0.40370  0.83700  1.0000
  C   C16       1.0  0.46840  0.59630  0.33700  1.0000
  H   H33       1.0  0.96460  0.85920  0.87100  1.0000
  H   H34       1.0  0.96460  0.14080  0.37100  1.0000
  H   H35       1.0  0.46460  0.35920  0.87100  1.0000
  H   H36       1.0  0.46460  0.64080  0.37100  1.0000
  H   H37       1.0  0.94320  0.88880  0.80560  1.0000
  H   H38       1.0  0.94320  0.11120  0.30560  1.0000
  H   H39       1.0  0.44320  0.38880  0.80560  1.0000
  H   H40       1.0  0.44320  0.61120  0.30560  1.0000
  H   H41       1.0  0.97000  0.98750  0.84610  1.0000
  H   H42       1.0  0.97000  0.01250  0.34610  1.0000
  H   H43       1.0  0.47000  0.48750  0.84610  1.0000
  H   H44       1.0  0.47000  0.51250  0.34610  1.0000
  C   C17       1.0  0.00750  0.74240  0.80390  1.0000
  C   C18       1.0  0.00750  0.25760  0.30390  1.0000
  C   C19       1.0  0.50750  0.24240  0.80390  1.0000
  C   C20       1.0  0.50750  0.75760  0.30390  1.0000
  H   H45       1.0  0.00650  0.69490  0.83800  1.0000
  H   H46       1.0  0.00650  0.30510  0.33800  1.0000
  H   H47       1.0  0.50650  0.19490  0.83800  1.0000
  H   H48       1.0  0.50650  0.80510  0.33800  1.0000
  H   H49       1.0  0.03380  0.72130  0.78870  1.0000
  H   H50       1.0  0.03380  0.27870  0.28870  1.0000
  H   H51       1.0  0.53380  0.22130  0.78870  1.0000
  H   H52       1.0  0.53380  0.77870  0.28870  1.0000
  H   H53       1.0  0.98080  0.72790  0.77470  1.0000
  H   H54       1.0  0.98080  0.27210  0.27470  1.0000
  H   H55       1.0  0.48080  0.22790  0.77470  1.0000
  H   H56       1.0  0.48080  0.77210  0.27470  1.0000
  C   C21       1.0  0.31730  0.86660  0.77460  1.0000
  C   C22       1.0  0.31730  0.13340  0.27460  1.0000
  C   C23       1.0  0.81730  0.36660  0.77460  1.0000
  C   C24       1.0  0.81730  0.63340  0.27460  1.0000
  C   C25       1.0  0.34600  0.93160  0.81570  1.0000
  C   C26       1.0  0.34600  0.06840  0.31570  1.0000
  C   C27       1.0  0.84600  0.43160  0.81570  1.0000
  C   C28       1.0  0.84600  0.56840  0.31570  1.0000
  H   H57       1.0  0.36530  0.89210  0.84600  1.0000
  H   H58       1.0  0.36530  0.10790  0.34600  1.0000
  H   H59       1.0  0.86530  0.39210  0.84600  1.0000
  H   H60       1.0  0.86530  0.60790  0.34600  1.0000
  C   C29       1.0  0.34700  0.05450  0.81310  1.0000
  C   C30       1.0  0.34700  0.94550  0.31310  1.0000
  C   C31       1.0  0.84700  0.55450  0.81310  1.0000
  C   C32       1.0  0.84700  0.44550  0.31310  1.0000
  C   C33       1.0  0.31850  0.11080  0.76840  1.0000
  C   C34       1.0  0.31850  0.88920  0.26840  1.0000
  C   C35       1.0  0.81850  0.61080  0.76840  1.0000
  C   C36       1.0  0.81850  0.38920  0.26840  1.0000
  H   H61       1.0  0.31870  0.19390  0.76620  1.0000
  H   H62       1.0  0.31870  0.80610  0.26620  1.0000
  H   H63       1.0  0.81870  0.69390  0.76620  1.0000
  H   H64       1.0  0.81870  0.30610  0.26620  1.0000
  C   C37       1.0  0.28960  0.04700  0.72700  1.0000
  C   C38       1.0  0.28960  0.95300  0.22700  1.0000
  C   C39       1.0  0.78960  0.54700  0.72700  1.0000
  C   C40       1.0  0.78960  0.45300  0.22700  1.0000
  C   C41       1.0  0.28942  0.92570  0.73010  1.0000
  C   C42       1.0  0.28942  0.07430  0.23010  1.0000
  C   C43       1.0  0.78942  0.42570  0.73010  1.0000
  C   C44       1.0  0.78942  0.57430  0.23010  1.0000
  H   H65       1.0  0.27010  0.88210  0.70160  1.0000
  H   H66       1.0  0.27010  0.11790  0.20160  1.0000
  H   H67       1.0  0.77010  0.38210  0.70160  1.0000
  H   H68       1.0  0.77010  0.61790  0.20160  1.0000
  C   C45       1.0  0.31790  0.73630  0.77960  1.0000
  C   C46       1.0  0.31790  0.26370  0.27960  1.0000
  C   C47       1.0  0.81790  0.23630  0.77960  1.0000
  C   C48       1.0  0.81790  0.76370  0.27960  1.0000
  C   C49       1.0  0.27920  0.66980  0.77970  1.0000
  C   C50       1.0  0.27920  0.33020  0.27970  1.0000
  C   C51       1.0  0.77920  0.16980  0.77970  1.0000
  C   C52       1.0  0.77920  0.83020  0.27970  1.0000
  C   C53       1.0  0.28270  0.54850  0.78500  1.0000
  C   C54       1.0  0.28270  0.45150  0.28500  1.0000
  C   C55       1.0  0.78270  0.04850  0.78500  1.0000
  C   C56       1.0  0.78270  0.95150  0.28500  1.0000
  H   H69       1.0  0.25670  0.50330  0.78450  1.0000
  H   H70       1.0  0.25670  0.49670  0.28450  1.0000
  H   H71       1.0  0.75670  0.00330  0.78450  1.0000
  H   H72       1.0  0.75670  0.99670  0.28450  1.0000
  C   C57       1.0  0.32300  0.49270  0.79080  1.0000
  C   C58       1.0  0.32300  0.50730  0.29080  1.0000
  C   C59       1.0  0.82300  0.99270  0.79080  1.0000
  C   C60       1.0  0.82300  0.00730  0.29080  1.0000
  H   H73       1.0  0.32490  0.41000  0.79520  1.0000
  H   H74       1.0  0.32490  0.59000  0.29520  1.0000
  H   H75       1.0  0.82490  0.91000  0.79520  1.0000
  H   H76       1.0  0.82490  0.09000  0.29520  1.0000
  C   C61       1.0  0.36110  0.55910  0.79020  1.0000
  C   C62       1.0  0.36110  0.44090  0.29020  1.0000
  C   C63       1.0  0.86110  0.05910  0.79020  1.0000
  C   C64       1.0  0.86110  0.94090  0.29020  1.0000
  H   H77       1.0  0.38900  0.52130  0.79340  1.0000
  H   H78       1.0  0.38900  0.47870  0.29340  1.0000
  H   H79       1.0  0.88900  0.02130  0.79340  1.0000
  H   H80       1.0  0.88900  0.97870  0.29340  1.0000
  C   C65       1.0  0.35830  0.67870  0.78500  1.0000
  C   C66       1.0  0.35830  0.32130  0.28500  1.0000
  C   C67       1.0  0.85830  0.17870  0.78500  1.0000
  C   C68       1.0  0.85830  0.82130  0.28500  1.0000
  H   H81       1.0  0.38450  0.72290  0.78510  1.0000
  H   H82       1.0  0.38450  0.27710  0.28510  1.0000
  H   H83       1.0  0.88450  0.22290  0.78510  1.0000
  H   H84       1.0  0.88450  0.77710  0.28510  1.0000
  C   C69       1.0  0.23490  0.72600  0.77380  1.0000
  C   C70       1.0  0.23490  0.27400  0.27380  1.0000
  C   C71       1.0  0.73490  0.22600  0.77380  1.0000
  C   C72       1.0  0.73490  0.77400  0.27380  1.0000
  C   C73       1.0  0.22820  0.82420  0.80630  1.0000
  C   C74       1.0  0.22820  0.17580  0.30630  1.0000
  C   C75       1.0  0.72820  0.32420  0.80630  1.0000
  C   C76       1.0  0.72820  0.67580  0.30630  1.0000
  H   H85       1.0  0.25210  0.85500  0.83390  1.0000
  H   H86       1.0  0.25210  0.14500  0.33390  1.0000
  H   H87       1.0  0.75210  0.35500  0.83390  1.0000
  H   H88       1.0  0.75210  0.64500  0.33390  1.0000
  C   C77       1.0  0.18670  0.87680  0.79850  1.0000
  C   C78       1.0  0.18670  0.12320  0.29850  1.0000
  C   C79       1.0  0.68670  0.37680  0.79850  1.0000
  C   C80       1.0  0.68670  0.62320  0.29850  1.0000
  H   H89       1.0  0.18240  0.94350  0.82070  1.0000
  H   H90       1.0  0.18240  0.05650  0.32070  1.0000
  H   H91       1.0  0.68240  0.44350  0.82070  1.0000
  H   H92       1.0  0.68240  0.55650  0.32070  1.0000
  C   C81       1.0  0.15120  0.83220  0.75800  1.0000
  C   C82       1.0  0.15120  0.16780  0.25800  1.0000
  C   C83       1.0  0.65120  0.33220  0.75800  1.0000
  C   C84       1.0  0.65120  0.66780  0.25800  1.0000
  C   C85       1.0  0.15730  0.73230  0.72670  1.0000
  C   C86       1.0  0.15730  0.26770  0.22670  1.0000
  C   C87       1.0  0.65730  0.23230  0.72670  1.0000
  C   C88       1.0  0.65730  0.76770  0.22670  1.0000
  H   H93       1.0  0.13320  0.70020  0.69990  1.0000
  H   H94       1.0  0.13320  0.29980  0.19990  1.0000
  H   H95       1.0  0.63320  0.20020  0.69990  1.0000
  H   H96       1.0  0.63320  0.79980  0.19990  1.0000
  C   C89       1.0  0.19900  0.67990  0.73480  1.0000
  C   C90       1.0  0.19900  0.32010  0.23480  1.0000
  C   C91       1.0  0.69900  0.17990  0.73480  1.0000
  C   C92       1.0  0.69900  0.82010  0.23480  1.0000
  H   H97       1.0  0.20310  0.61180  0.71350  1.0000
  H   H98       1.0  0.20310  0.38820  0.21350  1.0000
  H   H99       1.0  0.70310  0.11180  0.71350  1.0000
  H   H100      1.0  0.70310  0.88820  0.21350  1.0000
  C   C93       1.0  0.10680  0.88750  0.75180  1.0000
  C   C94       1.0  0.10680  0.11250  0.25180  1.0000
  C   C95       1.0  0.60680  0.38750  0.75180  1.0000
  C   C96       1.0  0.60680  0.61250  0.25180  1.0000
  O   O5        1.0  0.10218  0.98200  0.77700  1.0000
  O   O6        1.0  0.10218  0.01800  0.27700  1.0000
  O   O7        1.0  0.60218  0.48200  0.77700  1.0000
  O   O8        1.0  0.60218  0.51800  0.27700  1.0000
  O   O9        1.0  0.07284  0.83380  0.72260  1.0000
  O   O10       1.0  0.07284  0.16620  0.22260  1.0000
  O   O11       1.0  0.57284  0.33380  0.72260  1.0000
  O   O12       1.0  0.57284  0.66620  0.22260  1.0000
  C   C97       1.0  0.37610  0.12240  0.85960  1.0000
  C   C98       1.0  0.37610  0.87760  0.35960  1.0000
  C   C99       1.0  0.87610  0.62240  0.85960  1.0000
  C   C100      1.0  0.87610  0.37760  0.35960  1.0000
  C   C101      1.0  0.42040  0.09020  0.88330  1.0000
  C   C102      1.0  0.42040  0.90980  0.38330  1.0000
  C   C103      1.0  0.92040  0.59020  0.88330  1.0000
  C   C104      1.0  0.92040  0.40980  0.38330  1.0000
  C   C105      1.0  0.44290  0.15150  0.93120  1.0000
  C   C106      1.0  0.44290  0.84850  0.43120  1.0000
  C   C107      1.0  0.94290  0.65150  0.93120  1.0000
  C   C108      1.0  0.94290  0.34850  0.43120  1.0000
  H   H101      1.0  0.47230  0.12850  0.94800  1.0000
  H   H102      1.0  0.47230  0.87150  0.44800  1.0000
  H   H103      1.0  0.97230  0.62850  0.94800  1.0000
  H   H104      1.0  0.97230  0.37150  0.44800  1.0000
  C   C109      1.0  0.42410  0.24450  0.95540  1.0000
  C   C110      1.0  0.42410  0.75550  0.45540  1.0000
  C   C111      1.0  0.92410  0.74450  0.95540  1.0000
  C   C112      1.0  0.92410  0.25550  0.45540  1.0000
  H   H105      1.0  0.44010  0.28380  0.98820  1.0000
  H   H106      1.0  0.44010  0.71620  0.48820  1.0000
  H   H107      1.0  0.94010  0.78380  0.98820  1.0000
  H   H108      1.0  0.94010  0.21620  0.48820  1.0000
  C   C113      1.0  0.38130  0.27890  0.93050  1.0000
  C   C114      1.0  0.38130  0.72110  0.43050  1.0000
  C   C115      1.0  0.88130  0.77890  0.93050  1.0000
  C   C116      1.0  0.88130  0.22110  0.43050  1.0000
  H   H109      1.0  0.36810  0.34390  0.94570  1.0000
  H   H110      1.0  0.36810  0.65610  0.44570  1.0000
  H   H111      1.0  0.86810  0.84390  0.94570  1.0000
  H   H112      1.0  0.86810  0.15610  0.44570  1.0000
  C   C117      1.0  0.35780  0.21840  0.88350  1.0000
  C   C118      1.0  0.35780  0.78160  0.38350  1.0000
  C   C119      1.0  0.85780  0.71840  0.88350  1.0000
  C   C120      1.0  0.85780  0.28160  0.38350  1.0000
  H   H113      1.0  0.32850  0.24260  0.86700  1.0000
  H   H114      1.0  0.32850  0.75740  0.36700  1.0000
  H   H115      1.0  0.82850  0.74260  0.86700  1.0000
  H   H116      1.0  0.82850  0.25740  0.36700  1.0000
  C   C121      1.0  0.44320  0.99250  0.85970  1.0000
  C   C122      1.0  0.44320  0.00750  0.35970  1.0000
  C   C123      1.0  0.94320  0.49250  0.85970  1.0000
  C   C124      1.0  0.94320  0.50750  0.35970  1.0000
  C   C125      1.0  0.44490  0.98800  0.80080  1.0000
  C   C126      1.0  0.44490  0.01200  0.30080  1.0000
  C   C127      1.0  0.94490  0.48800  0.80080  1.0000
  C   C128      1.0  0.94490  0.51200  0.30080  1.0000
  H   H117      1.0  0.43150  0.04820  0.77560  1.0000
  H   H118      1.0  0.43150  0.95180  0.27560  1.0000
  H   H119      1.0  0.93150  0.54820  0.77560  1.0000
  H   H120      1.0  0.93150  0.45180  0.27560  1.0000
  C   C129      1.0  0.46610  0.89520  0.77980  1.0000
  C   C130      1.0  0.46610  0.10480  0.27980  1.0000
  C   C131      1.0  0.96610  0.39520  0.77980  1.0000
  C   C132      1.0  0.96610  0.60480  0.27980  1.0000
  H   H121      1.0  0.46770  0.89310  0.74030  1.0000
  H   H122      1.0  0.46770  0.10690  0.24030  1.0000
  H   H123      1.0  0.96770  0.39310  0.74030  1.0000
  H   H124      1.0  0.96770  0.60690  0.24030  1.0000
  C   C133      1.0  0.48520  0.80500  0.81610  1.0000
  C   C134      1.0  0.48520  0.19500  0.31610  1.0000
  C   C135      1.0  0.98520  0.30500  0.81610  1.0000
  C   C136      1.0  0.98520  0.69500  0.31610  1.0000
  C   C137      1.0  0.48390  0.81080  0.87450  1.0000
  C   C138      1.0  0.48390  0.18920  0.37450  1.0000
  C   C139      1.0  0.98390  0.31080  0.87450  1.0000
  C   C140      1.0  0.98390  0.68920  0.37450  1.0000
  H   H125      1.0  0.49710  0.75070  0.89980  1.0000
  H   H126      1.0  0.49710  0.24930  0.39980  1.0000
  H   H127      1.0  0.99710  0.25070  0.89980  1.0000
  H   H128      1.0  0.99710  0.74930  0.39980  1.0000
  C   C141      1.0  0.46300  0.90500  0.89550  1.0000
  C   C142      1.0  0.46300  0.09500  0.39550  1.0000
  C   C143      1.0  0.96300  0.40500  0.89550  1.0000
  C   C144      1.0  0.96300  0.59500  0.39550  1.0000
  H   H129      1.0  0.46250  0.90880  0.93530  1.0000
  H   H130      1.0  0.46250  0.09120  0.43530  1.0000
  H   H131      1.0  0.96250  0.40880  0.93530  1.0000
  H   H132      1.0  0.96250  0.59120  0.43530  1.0000
  C   C145      1.0  0.50590  0.70040  0.79390  1.0000
  C   C146      1.0  0.50590  0.29960  0.29390  1.0000
  C   C147      1.0  0.00590  0.20040  0.79390  1.0000
  C   C148      1.0  0.00590  0.79960  0.29390  1.0000
  O   O13       1.0  0.49826  0.68040  0.74100  1.0000
  O   O14       1.0  0.49826  0.31960  0.24100  1.0000
  O   O15       1.0  0.99826  0.18040  0.74100  1.0000
  O   O16       1.0  0.99826  0.81960  0.24100  1.0000
  O   O17       1.0  0.52805  0.63070  0.82920  1.0000
  O   O18       1.0  0.52805  0.36930  0.32920  1.0000
  O   O19       1.0  0.02805  0.13070  0.82920  1.0000
  O   O20       1.0  0.02805  0.86930  0.32920  1.0000
  C   C149      1.0  0.25700  0.10870  0.68110  1.0000
  C   C150      1.0  0.25700  0.89130  0.18110  1.0000
  C   C151      1.0  0.75700  0.60870  0.68110  1.0000
  C   C152      1.0  0.75700  0.39130  0.18110  1.0000
  C   C153      1.0  0.26980  0.19710  0.64680  1.0000
  C   C154      1.0  0.26980  0.80290  0.14680  1.0000
  C   C155      1.0  0.76980  0.69710  0.64680  1.0000
  C   C156      1.0  0.76980  0.30290  0.14680  1.0000
  C   C157      1.0  0.23730  0.25530  0.60740  1.0000
  C   C158      1.0  0.23730  0.74470  0.10740  1.0000
  C   C159      1.0  0.73730  0.75530  0.60740  1.0000
  C   C160      1.0  0.73730  0.24470  0.10740  1.0000
  H   H133      1.0  0.24580  0.31470  0.58370  1.0000
  H   H134      1.0  0.24580  0.68530  0.08370  1.0000
  H   H135      1.0  0.74580  0.81470  0.58370  1.0000
  H   H136      1.0  0.74580  0.18530  0.08370  1.0000
  C   C161      1.0  0.19280  0.22790  0.60230  1.0000
  C   C162      1.0  0.19280  0.77210  0.10230  1.0000
  C   C163      1.0  0.69280  0.72790  0.60230  1.0000
  C   C164      1.0  0.69280  0.27210  0.10230  1.0000
  H   H137      1.0  0.17100  0.26890  0.57550  1.0000
  H   H138      1.0  0.17100  0.73110  0.07550  1.0000
  H   H139      1.0  0.67100  0.76890  0.57550  1.0000
  H   H140      1.0  0.67100  0.23110  0.07550  1.0000
  C   C165      1.0  0.18000  0.13970  0.63660  1.0000
  C   C166      1.0  0.18000  0.86030  0.13660  1.0000
  C   C167      1.0  0.68000  0.63970  0.63660  1.0000
  C   C168      1.0  0.68000  0.36030  0.13660  1.0000
  H   H141      1.0  0.14960  0.12040  0.63360  1.0000
  H   H142      1.0  0.14960  0.87960  0.13360  1.0000
  H   H143      1.0  0.64960  0.62040  0.63360  1.0000
  H   H144      1.0  0.64960  0.37960  0.13360  1.0000
  C   C169      1.0  0.21240  0.08120  0.67490  1.0000
  C   C170      1.0  0.21240  0.91880  0.17490  1.0000
  C   C171      1.0  0.71240  0.58120  0.67490  1.0000
  C   C172      1.0  0.71240  0.41880  0.17490  1.0000
  H   H145      1.0  0.20390  0.02030  0.69770  1.0000
  H   H146      1.0  0.20390  0.97970  0.19770  1.0000
  H   H147      1.0  0.70390  0.52030  0.69770  1.0000
  H   H148      1.0  0.70390  0.47970  0.19770  1.0000
  C   C173      1.0  0.31720  0.23060  0.65110  1.0000
  C   C174      1.0  0.31720  0.76940  0.15110  1.0000
  C   C175      1.0  0.81720  0.73060  0.65110  1.0000
  C   C176      1.0  0.81720  0.26940  0.15110  1.0000
  C   C177      1.0  0.34930  0.14900  0.64300  1.0000
  C   C178      1.0  0.34930  0.85100  0.14300  1.0000
  C   C179      1.0  0.84930  0.64900  0.64300  1.0000
  C   C180      1.0  0.84930  0.35100  0.14300  1.0000
  H   H149      1.0  0.34100  0.06990  0.63420  1.0000
  H   H150      1.0  0.34100  0.93010  0.13420  1.0000
  H   H151      1.0  0.84100  0.56990  0.63420  1.0000
  H   H152      1.0  0.84100  0.43010  0.13420  1.0000
  C   C181      1.0  0.39320  0.18260  0.64780  1.0000
  C   C182      1.0  0.39320  0.81740  0.14780  1.0000
  C   C183      1.0  0.89320  0.68260  0.64780  1.0000
  C   C184      1.0  0.89320  0.31740  0.14780  1.0000
  H   H153      1.0  0.41450  0.12610  0.64190  1.0000
  H   H154      1.0  0.41450  0.87390  0.14190  1.0000
  H   H155      1.0  0.91450  0.62610  0.64190  1.0000
  H   H156      1.0  0.91450  0.37390  0.14190  1.0000
  C   C185      1.0  0.40660  0.29720  0.66100  1.0000
  C   C186      1.0  0.40660  0.70280  0.16100  1.0000
  C   C187      1.0  0.90660  0.79720  0.66100  1.0000
  C   C188      1.0  0.90660  0.20280  0.16100  1.0000
  C   C189      1.0  0.37430  0.37910  0.66980  1.0000
  C   C190      1.0  0.37430  0.62090  0.16980  1.0000
  C   C191      1.0  0.87430  0.87910  0.66980  1.0000
  C   C192      1.0  0.87430  0.12090  0.16980  1.0000
  H   H157      1.0  0.38270  0.45740  0.68010  1.0000
  H   H158      1.0  0.38270  0.54260  0.18010  1.0000
  H   H159      1.0  0.88270  0.95740  0.68010  1.0000
  H   H160      1.0  0.88270  0.04260  0.18010  1.0000
  C   C193      1.0  0.33050  0.34620  0.66350  1.0000
  C   C194      1.0  0.33050  0.65380  0.16350  1.0000
  C   C195      1.0  0.83050  0.84620  0.66350  1.0000
  C   C196      1.0  0.83050  0.15380  0.16350  1.0000
  H   H161      1.0  0.30900  0.40340  0.66760  1.0000
  H   H162      1.0  0.30900  0.59660  0.16760  1.0000
  H   H163      1.0  0.80900  0.90340  0.66760  1.0000
  H   H164      1.0  0.80900  0.09660  0.16760  1.0000
  C   C197      1.0  0.45420  0.33590  0.66670  1.0000
  C   C198      1.0  0.45420  0.66410  0.16670  1.0000
  C   C199      1.0  0.95420  0.83590  0.66670  1.0000
  C   C200      1.0  0.95420  0.16410  0.16670  1.0000
  O   O21       1.0  0.47984  0.27030  0.64520  1.0000
  O   O22       1.0  0.47984  0.72970  0.14520  1.0000
  O   O23       1.0  0.97984  0.77030  0.64520  1.0000
  O   O24       1.0  0.97984  0.22970  0.14520  1.0000
  O   O25       1.0  0.46451  0.43030  0.69240  1.0000
  O   O26       1.0  0.46451  0.56970  0.19240  1.0000
  O   O27       1.0  0.96451  0.93030  0.69240  1.0000
  O   O28       1.0  0.96451  0.06970  0.19240  1.0000
  C   C201      1.0  0.77480  0.86940  0.46280  1.0000
  C   C202      1.0  0.77480  0.13060  0.96280  1.0000
  C   C203      1.0  0.27480  0.36940  0.46280  1.0000
  C   C204      1.0  0.27480  0.63060  0.96280  1.0000
  C   C205      1.0  0.80150  0.93090  0.50780  1.0000
  C   C206      1.0  0.80150  0.06910  0.00780  1.0000
  C   C207      1.0  0.30150  0.43090  0.50780  1.0000
  C   C208      1.0  0.30150  0.56910  0.00780  1.0000
  H   H165      1.0  0.82120  0.88880  0.53660  1.0000
  H   H166      1.0  0.82120  0.11120  0.03660  1.0000
  H   H167      1.0  0.32120  0.38880  0.53660  1.0000
  H   H168      1.0  0.32120  0.61120  0.03660  1.0000
  C   C209      1.0  0.79960  0.05310  0.51110  1.0000
  C   C210      1.0  0.79960  0.94690  0.01110  1.0000
  C   C211      1.0  0.29960  0.55310  0.51110  1.0000
  C   C212      1.0  0.29960  0.44690  0.01110  1.0000
  C   C213      1.0  0.76970  0.11310  0.46830  1.0000
  C   C214      1.0  0.76970  0.88690  0.96830  1.0000
  C   C215      1.0  0.26970  0.61310  0.46830  1.0000
  C   C216      1.0  0.26970  0.38690  0.96830  1.0000
  H   H169      1.0  0.76790  0.19610  0.47010  1.0000
  H   H170      1.0  0.76790  0.80390  0.97010  1.0000
  H   H171      1.0  0.26790  0.69610  0.47010  1.0000
  H   H172      1.0  0.26790  0.30390  0.97010  1.0000
  C   C217      1.0  0.74290  0.05410  0.42390  1.0000
  C   C218      1.0  0.74290  0.94590  0.92390  1.0000
  C   C219      1.0  0.24290  0.55410  0.42390  1.0000
  C   C220      1.0  0.24290  0.44590  0.92390  1.0000
  C   C221      1.0  0.74620  0.93260  0.42140  1.0000
  C   C222      1.0  0.74620  0.06740  0.92140  1.0000
  C   C223      1.0  0.24620  0.43260  0.42140  1.0000
  C   C224      1.0  0.24620  0.56740  0.92140  1.0000
  H   H173      1.0  0.72820  0.89180  0.39040  1.0000
  H   H174      1.0  0.72820  0.10820  0.89040  1.0000
  H   H175      1.0  0.22820  0.39180  0.39040  1.0000
  H   H176      1.0  0.22820  0.60820  0.89040  1.0000
  C   C225      1.0  0.77610  0.73980  0.45750  1.0000
  C   C226      1.0  0.77610  0.26020  0.95750  1.0000
  C   C227      1.0  0.27610  0.23980  0.45750  1.0000
  C   C228      1.0  0.27610  0.76020  0.95750  1.0000
  C   C229      1.0  0.81470  0.67560  0.45660  1.0000
  C   C230      1.0  0.81470  0.32440  0.95660  1.0000
  C   C231      1.0  0.31470  0.17560  0.45660  1.0000
  C   C232      1.0  0.31470  0.82440  0.95660  1.0000
  C   C233      1.0  0.81200  0.55450  0.44910  1.0000
  C   C234      1.0  0.81200  0.44550  0.94910  1.0000
  C   C235      1.0  0.31200  0.05450  0.44910  1.0000
  C   C236      1.0  0.31200  0.94550  0.94910  1.0000
  H   H177      1.0  0.83810  0.51110  0.44760  1.0000
  H   H178      1.0  0.83810  0.48890  0.94760  1.0000
  H   H179      1.0  0.33810  0.01110  0.44760  1.0000
  H   H180      1.0  0.33810  0.98890  0.94760  1.0000
  C   C237      1.0  0.77160  0.49610  0.44380  1.0000
  C   C238      1.0  0.77160  0.50390  0.94380  1.0000
  C   C239      1.0  0.27160  0.99610  0.44380  1.0000
  C   C240      1.0  0.27160  0.00390  0.94380  1.0000
  H   H181      1.0  0.77010  0.41360  0.43850  1.0000
  H   H182      1.0  0.77010  0.58640  0.93850  1.0000
  H   H183      1.0  0.27010  0.91360  0.43850  1.0000
  H   H184      1.0  0.27010  0.08640  0.93850  1.0000
  C   C241      1.0  0.73370  0.56020  0.44640  1.0000
  C   C242      1.0  0.73370  0.43980  0.94640  1.0000
  C   C243      1.0  0.23370  0.06020  0.44640  1.0000
  C   C244      1.0  0.23370  0.93980  0.94640  1.0000
  H   H185      1.0  0.70610  0.52110  0.44360  1.0000
  H   H186      1.0  0.70610  0.47890  0.94360  1.0000
  H   H187      1.0  0.20610  0.02110  0.44360  1.0000
  H   H188      1.0  0.20610  0.97890  0.94360  1.0000
  C   C245      1.0  0.73580  0.67940  0.45280  1.0000
  C   C246      1.0  0.73580  0.32060  0.95280  1.0000
  C   C247      1.0  0.23580  0.17940  0.45280  1.0000
  C   C248      1.0  0.23580  0.82060  0.95280  1.0000
  H   H189      1.0  0.70950  0.72210  0.45420  1.0000
  H   H190      1.0  0.70950  0.27790  0.95420  1.0000
  H   H191      1.0  0.20950  0.22210  0.45420  1.0000
  H   H192      1.0  0.20950  0.77790  0.95420  1.0000
  C   C249      1.0  0.85910  0.73320  0.46350  1.0000
  C   C250      1.0  0.85910  0.26680  0.96350  1.0000
  C   C251      1.0  0.35910  0.23320  0.46350  1.0000
  C   C252      1.0  0.35910  0.76680  0.96350  1.0000
  C   C253      1.0  0.89420  0.68590  0.50280  1.0000
  C   C254      1.0  0.89420  0.31410  0.00280  1.0000
  C   C255      1.0  0.39420  0.18590  0.50280  1.0000
  C   C256      1.0  0.39420  0.81410  0.00280  1.0000
  H   H193      1.0  0.89000  0.61520  0.52210  1.0000
  H   H194      1.0  0.89000  0.38480  0.02210  1.0000
  H   H195      1.0  0.39000  0.11520  0.52210  1.0000
  H   H196      1.0  0.39000  0.88480  0.02210  1.0000
  C   C257      1.0  0.93560  0.74020  0.51430  1.0000
  C   C258      1.0  0.93560  0.25980  0.01430  1.0000
  C   C259      1.0  0.43560  0.24020  0.51430  1.0000
  C   C260      1.0  0.43560  0.75980  0.01430  1.0000
  H   H197      1.0  0.95920  0.70670  0.54130  1.0000
  H   H198      1.0  0.95920  0.29330  0.04130  1.0000
  H   H199      1.0  0.45920  0.20670  0.54130  1.0000
  H   H200      1.0  0.45920  0.79330  0.04130  1.0000
  C   C261      1.0  0.94220  0.84240  0.48660  1.0000
  C   C262      1.0  0.94220  0.15760  0.98660  1.0000
  C   C263      1.0  0.44220  0.34240  0.48660  1.0000
  C   C264      1.0  0.44220  0.65760  0.98660  1.0000
  C   C265      1.0  0.90740  0.88870  0.44510  1.0000
  C   C266      1.0  0.90740  0.11130  0.94510  1.0000
  C   C267      1.0  0.40740  0.38870  0.44510  1.0000
  C   C268      1.0  0.40740  0.61130  0.94510  1.0000
  H   H201      1.0  0.91190  0.95790  0.42480  1.0000
  H   H202      1.0  0.91190  0.04210  0.92480  1.0000
  H   H203      1.0  0.41190  0.45790  0.42480  1.0000
  H   H204      1.0  0.41190  0.54210  0.92480  1.0000
  C   C269      1.0  0.86640  0.83380  0.43360  1.0000
  C   C270      1.0  0.86640  0.16620  0.93360  1.0000
  C   C271      1.0  0.36640  0.33380  0.43360  1.0000
  C   C272      1.0  0.36640  0.66620  0.93360  1.0000
  H   H205      1.0  0.84320  0.86490  0.40510  1.0000
  H   H206      1.0  0.84320  0.13510  0.90510  1.0000
  H   H207      1.0  0.34320  0.36490  0.40510  1.0000
  H   H208      1.0  0.34320  0.63510  0.90510  1.0000
  C   C273      1.0  0.98530  0.90670  0.50180  1.0000
  C   C274      1.0  0.98530  0.09330  0.00180  1.0000
  C   C275      1.0  0.48530  0.40670  0.50180  1.0000
  C   C276      1.0  0.48530  0.59330  0.00180  1.0000
  O   O29       1.0  0.01867  0.85190  0.53010  1.0000
  O   O30       1.0  0.01867  0.14810  0.03010  1.0000
  O   O31       1.0  0.51867  0.35190  0.53010  1.0000
  O   O32       1.0  0.51867  0.64810  0.03010  1.0000
  O   O33       1.0  0.98819  0.01080  0.48750  1.0000
  O   O34       1.0  0.98819  0.98920  0.98750  1.0000
  O   O35       1.0  0.48819  0.51080  0.48750  1.0000
  O   O36       1.0  0.48819  0.48920  0.98750  1.0000
  C   C277      1.0  0.83030  0.11670  0.55690  1.0000
  C   C278      1.0  0.83030  0.88330  0.05690  1.0000
  C   C279      1.0  0.33030  0.61670  0.55690  1.0000
  C   C280      1.0  0.33030  0.38330  0.05690  1.0000
  C   C281      1.0  0.81660  0.20760  0.58960  1.0000
  C   C282      1.0  0.81660  0.79240  0.08960  1.0000
  C   C283      1.0  0.31660  0.70760  0.58960  1.0000
  C   C284      1.0  0.31660  0.29240  0.08960  1.0000
  C   C285      1.0  0.84880  0.26370  0.63110  1.0000
  C   C286      1.0  0.84880  0.73630  0.13110  1.0000
  C   C287      1.0  0.34880  0.76370  0.63110  1.0000
  C   C288      1.0  0.34880  0.23630  0.13110  1.0000
  H   H209      1.0  0.84000  0.32620  0.65290  1.0000
  H   H210      1.0  0.84000  0.67380  0.15290  1.0000
  H   H211      1.0  0.34000  0.82620  0.65290  1.0000
  H   H212      1.0  0.34000  0.17380  0.15290  1.0000
  C   C289      1.0  0.89280  0.23050  0.64120  1.0000
  C   C290      1.0  0.89280  0.76950  0.14120  1.0000
  C   C291      1.0  0.39280  0.73050  0.64120  1.0000
  C   C292      1.0  0.39280  0.26950  0.14120  1.0000
  H   H213      1.0  0.91370  0.26870  0.67010  1.0000
  H   H214      1.0  0.91370  0.73130  0.17010  1.0000
  H   H215      1.0  0.41370  0.76870  0.67010  1.0000
  H   H216      1.0  0.41370  0.23130  0.17010  1.0000
  C   C293      1.0  0.90640  0.14150  0.60910  1.0000
  C   C294      1.0  0.90640  0.85850  0.10910  1.0000
  C   C295      1.0  0.40640  0.64150  0.60910  1.0000
  C   C296      1.0  0.40640  0.35850  0.10910  1.0000
  H   H217      1.0  0.93670  0.11930  0.61550  1.0000
  H   H218      1.0  0.93670  0.88070  0.11550  1.0000
  H   H219      1.0  0.43670  0.61930  0.61550  1.0000
  H   H220      1.0  0.43670  0.38070  0.11550  1.0000
  C   C297      1.0  0.87540  0.08500  0.56750  1.0000
  C   C298      1.0  0.87540  0.91500  0.06750  1.0000
  C   C299      1.0  0.37540  0.58500  0.56750  1.0000
  C   C300      1.0  0.37540  0.41500  0.06750  1.0000
  H   H221      1.0  0.88480  0.02360  0.54580  1.0000
  H   H222      1.0  0.88480  0.97640  0.04580  1.0000
  H   H223      1.0  0.38480  0.52360  0.54580  1.0000
  H   H224      1.0  0.38480  0.47640  0.04580  1.0000
  C   C301      1.0  0.76920  0.24480  0.58310  1.0000
  C   C302      1.0  0.76920  0.75520  0.08310  1.0000
  C   C303      1.0  0.26920  0.74480  0.58310  1.0000
  C   C304      1.0  0.26920  0.25520  0.08310  1.0000
  C   C305      1.0  0.73640  0.16710  0.59210  1.0000
  C   C306      1.0  0.73640  0.83290  0.09210  1.0000
  C   C307      1.0  0.23640  0.66710  0.59210  1.0000
  C   C308      1.0  0.23640  0.33290  0.09210  1.0000
  H   H225      1.0  0.74360  0.08710  0.60020  1.0000
  H   H226      1.0  0.74360  0.91290  0.10020  1.0000
  H   H227      1.0  0.24360  0.58710  0.60020  1.0000
  H   H228      1.0  0.24360  0.41290  0.10020  1.0000
  C   C309      1.0  0.69290  0.20580  0.58920  1.0000
  C   C310      1.0  0.69290  0.79420  0.08920  1.0000
  C   C311      1.0  0.19290  0.70580  0.58920  1.0000
  C   C312      1.0  0.19290  0.29420  0.08920  1.0000
  H   H229      1.0  0.67100  0.15300  0.59720  1.0000
  H   H230      1.0  0.67100  0.84700  0.09720  1.0000
  H   H231      1.0  0.17100  0.65300  0.59720  1.0000
  H   H232      1.0  0.17100  0.34700  0.09720  1.0000
  C   C313      1.0  0.68170  0.32200  0.57480  1.0000
  C   C314      1.0  0.68170  0.67800  0.07480  1.0000
  C   C315      1.0  0.18170  0.82200  0.57480  1.0000
  C   C316      1.0  0.18170  0.17800  0.07480  1.0000
  C   C317      1.0  0.71410  0.39920  0.56420  1.0000
  C   C318      1.0  0.71410  0.60080  0.06420  1.0000
  C   C319      1.0  0.21410  0.89920  0.56420  1.0000
  C   C320      1.0  0.21410  0.10080  0.06420  1.0000
  H   H233      1.0  0.70650  0.47780  0.55340  1.0000
  H   H234      1.0  0.70650  0.52220  0.05340  1.0000
  H   H235      1.0  0.20650  0.97780  0.55340  1.0000
  H   H236      1.0  0.20650  0.02220  0.05340  1.0000
  C   C321      1.0  0.75750  0.36110  0.56950  1.0000
  C   C322      1.0  0.75750  0.63890  0.06950  1.0000
  C   C323      1.0  0.25750  0.86110  0.56950  1.0000
  C   C324      1.0  0.25750  0.13890  0.06950  1.0000
  H   H237      1.0  0.77970  0.41520  0.56380  1.0000
  H   H238      1.0  0.77970  0.58480  0.06380  1.0000
  H   H239      1.0  0.27970  0.91520  0.56380  1.0000
  H   H240      1.0  0.27970  0.08480  0.06380  1.0000
  C   C325      1.0  0.63480  0.36360  0.57210  1.0000
  C   C326      1.0  0.63480  0.63640  0.07210  1.0000
  C   C327      1.0  0.13480  0.86360  0.57210  1.0000
  C   C328      1.0  0.13480  0.13640  0.07210  1.0000
  O   O37       1.0  0.61233  0.31240  0.60300  1.0000
  O   O38       1.0  0.61233  0.68760  0.10300  1.0000
  O   O39       1.0  0.11233  0.81240  0.60300  1.0000
  O   O40       1.0  0.11233  0.18760  0.10300  1.0000
  O   O41       1.0  0.62161  0.44910  0.53880  1.0000
  O   O42       1.0  0.62161  0.55090  0.03880  1.0000
  O   O43       1.0  0.12161  0.94910  0.53880  1.0000
  O   O44       1.0  0.12161  0.05090  0.03880  1.0000
  C   C329      1.0  0.71220  0.11610  0.37690  1.0000
  C   C330      1.0  0.71220  0.88390  0.87690  1.0000
  C   C331      1.0  0.21220  0.61610  0.37690  1.0000
  C   C332      1.0  0.21220  0.38390  0.87690  1.0000
  C   C333      1.0  0.66920  0.07360  0.35460  1.0000
  C   C334      1.0  0.66920  0.92640  0.85460  1.0000
  C   C335      1.0  0.16920  0.57360  0.35460  1.0000
  C   C336      1.0  0.16920  0.42640  0.85460  1.0000
  C   C337      1.0  0.64430  0.12480  0.30520  1.0000
  C   C338      1.0  0.64430  0.87520  0.80520  1.0000
  C   C339      1.0  0.14430  0.62480  0.30520  1.0000
  C   C340      1.0  0.14430  0.37520  0.80520  1.0000
  H   H241      1.0  0.61560  0.09520  0.28950  1.0000
  H   H242      1.0  0.61560  0.90480  0.78950  1.0000
  H   H243      1.0  0.11560  0.59520  0.28950  1.0000
  H   H244      1.0  0.11560  0.40480  0.78950  1.0000
  C   C341      1.0  0.66100  0.21880  0.27850  1.0000
  C   C342      1.0  0.66100  0.78120  0.77850  1.0000
  C   C343      1.0  0.16100  0.71880  0.27850  1.0000
  C   C344      1.0  0.16100  0.28120  0.77850  1.0000
  H   H245      1.0  0.64410  0.25130  0.24420  1.0000
  H   H246      1.0  0.64410  0.74870  0.74420  1.0000
  H   H247      1.0  0.14410  0.75130  0.24420  1.0000
  H   H248      1.0  0.14410  0.24870  0.74420  1.0000
  C   C345      1.0  0.70220  0.26460  0.30220  1.0000
  C   C346      1.0  0.70220  0.73540  0.80220  1.0000
  C   C347      1.0  0.20220  0.76460  0.30220  1.0000
  C   C348      1.0  0.20220  0.23540  0.80220  1.0000
  H   H249      1.0  0.71300  0.33150  0.28550  1.0000
  H   H250      1.0  0.71300  0.66850  0.78550  1.0000
  H   H251      1.0  0.21300  0.83150  0.28550  1.0000
  H   H252      1.0  0.21300  0.16850  0.78550  1.0000
  C   C349      1.0  0.72760  0.21300  0.35010  1.0000
  C   C350      1.0  0.72760  0.78700  0.85010  1.0000
  C   C351      1.0  0.22760  0.71300  0.35010  1.0000
  C   C352      1.0  0.22760  0.28700  0.85010  1.0000
  H   H253      1.0  0.75620  0.24360  0.36530  1.0000
  H   H254      1.0  0.75620  0.75640  0.86530  1.0000
  H   H255      1.0  0.25620  0.74360  0.36530  1.0000
  H   H256      1.0  0.25620  0.25640  0.86530  1.0000
  C   C353      1.0  0.64860  0.97950  0.38390  1.0000
  C   C354      1.0  0.64860  0.02050  0.88390  1.0000
  C   C355      1.0  0.14860  0.47950  0.38390  1.0000
  C   C356      1.0  0.14860  0.52050  0.88390  1.0000
  C   C357      1.0  0.64780  0.98570  0.44170  1.0000
  C   C358      1.0  0.64780  0.01430  0.94170  1.0000
  C   C359      1.0  0.14780  0.48570  0.44170  1.0000
  C   C360      1.0  0.14780  0.51430  0.94170  1.0000
  H   H257      1.0  0.66150  0.05020  0.46350  1.0000
  H   H258      1.0  0.66150  0.94980  0.96350  1.0000
  H   H259      1.0  0.16150  0.55020  0.46350  1.0000
  H   H260      1.0  0.16150  0.44980  0.96350  1.0000
  C   C361      1.0  0.62720  0.89920  0.46880  1.0000
  C   C362      1.0  0.62720  0.10080  0.96880  1.0000
  C   C363      1.0  0.12720  0.39920  0.46880  1.0000
  C   C364      1.0  0.12720  0.60080  0.96880  1.0000
  H   H261      1.0  0.62520  0.90780  0.50800  1.0000
  H   H262      1.0  0.62520  0.09220  0.00800  1.0000
  H   H263      1.0  0.12520  0.40780  0.50800  1.0000
  H   H264      1.0  0.12520  0.59220  0.00800  1.0000
  C   C365      1.0  0.60940  0.80000  0.43820  1.0000
  C   C366      1.0  0.60940  0.20000  0.93820  1.0000
  C   C367      1.0  0.10940  0.30000  0.43820  1.0000
  C   C368      1.0  0.10940  0.70000  0.93820  1.0000
  C   C369      1.0  0.61250  0.79080  0.38090  1.0000
  C   C370      1.0  0.61250  0.20920  0.88090  1.0000
  C   C371      1.0  0.11250  0.29080  0.38090  1.0000
  C   C372      1.0  0.11250  0.70920  0.88090  1.0000
  H   H265      1.0  0.60210  0.72160  0.36030  1.0000
  H   H266      1.0  0.60210  0.27840  0.86030  1.0000
  H   H267      1.0  0.10210  0.22160  0.36030  1.0000
  H   H268      1.0  0.10210  0.77840  0.86030  1.0000
  C   C373      1.0  0.63040  0.88090  0.35280  1.0000
  C   C374      1.0  0.63040  0.11910  0.85280  1.0000
  C   C375      1.0  0.13040  0.38090  0.35280  1.0000
  C   C376      1.0  0.13040  0.61910  0.85280  1.0000
  H   H269      1.0  0.63030  0.87530  0.31290  1.0000
  H   H270      1.0  0.63030  0.12470  0.81290  1.0000
  H   H271      1.0  0.13030  0.37530  0.31290  1.0000
  H   H272      1.0  0.13030  0.62470  0.81290  1.0000
  C   C377      1.0  0.58908  0.70500  0.46720  1.0000
  C   C378      1.0  0.58908  0.29500  0.96720  1.0000
  C   C379      1.0  0.08908  0.20500  0.46720  1.0000
  C   C380      1.0  0.08908  0.79500  0.96720  1.0000
  O   O45       1.0  0.57704  0.61040  0.44080  1.0000
  O   O46       1.0  0.57704  0.38960  0.94080  1.0000
  O   O47       1.0  0.07704  0.11040  0.44080  1.0000
  O   O48       1.0  0.07704  0.88960  0.94080  1.0000
  O   O49       1.0  0.58340  0.72280  0.51800  1.0000
  O   O50       1.0  0.58340  0.27720  0.01800  1.0000
  O   O51       1.0  0.08340  0.22280  0.51800  1.0000
  O   O52       1.0  0.08340  0.77720  0.01800  1.0000
