data_image0
_chemical_formula_structural       In2O16C24H4C4H4C4H4
_chemical_formula_sum              "In2 O16 C32 H12"
_cell_length_a       7.222
_cell_length_b       7.172
_cell_length_c       15.172
_cell_angle_alpha    90
_cell_angle_beta     105.405
_cell_angle_gamma    90

_space_group_name_H-M_alt    "P 1"
_space_group_IT_number       1

loop_
  _space_group_symop_operation_xyz
  'x, y, z'

loop_
  _atom_site_type_symbol
  _atom_site_label
  _atom_site_symmetry_multiplicity
  _atom_site_fract_x
  _atom_site_fract_y
  _atom_site_fract_z
  _atom_site_occupancy
  In  In1       1.0  0.50000  0.35210  0.25000  1.0000
  In  In2       1.0  0.50000  0.64790  0.75000  1.0000
  O   O1        1.0  0.41140  0.21200  0.36329  1.0000
  O   O2        1.0  0.58860  0.21200  0.13671  1.0000
  O   O3        1.0  0.58860  0.78800  0.63671  1.0000
  O   O4        1.0  0.41140  0.78800  0.86329  1.0000
  O   O5        1.0  0.26230  0.12440  0.22633  1.0000
  O   O6        1.0  0.73770  0.12440  0.27367  1.0000
  O   O7        1.0  0.73770  0.87560  0.77367  1.0000
  O   O8        1.0  0.26230  0.87560  0.72633  1.0000
  O   O9        1.0  0.72260  0.58180  0.22187  1.0000
  O   O10       1.0  0.27740  0.58180  0.27813  1.0000
  O   O11       1.0  0.27740  0.41820  0.77813  1.0000
  O   O12       1.0  0.72260  0.41820  0.72187  1.0000
  O   O13       1.0  0.70020  0.51200  0.35764  1.0000
  O   O14       1.0  0.29980  0.51200  0.14236  1.0000
  O   O15       1.0  0.29980  0.48800  0.64236  1.0000
  O   O16       1.0  0.70020  0.48800  0.85764  1.0000
  C   C1        1.0  0.28660  0.10850  0.31013  1.0000
  C   C2        1.0  0.71340  0.10850  0.18987  1.0000
  C   C3        1.0  0.71340  0.89150  0.68987  1.0000
  C   C4        1.0  0.28660  0.89150  0.81013  1.0000
  C   C5        1.0  0.17850  0.97220  0.35251  1.0000
  C   C6        1.0  0.82150  0.97220  0.14749  1.0000
  C   C7        1.0  0.82150  0.02780  0.64749  1.0000
  C   C8        1.0  0.17850  0.02780  0.85251  1.0000
  C   C9        1.0  0.02910  0.85670  0.30156  1.0000
  C   C10       1.0  0.97090  0.85670  0.19844  1.0000
  C   C11       1.0  0.97090  0.14330  0.69844  1.0000
  C   C12       1.0  0.02910  0.14330  0.80156  1.0000
  C   C13       1.0  0.93880  0.73620  0.35038  1.0000
  C   C14       1.0  0.06120  0.73620  0.14962  1.0000
  C   C15       1.0  0.06120  0.26380  0.64962  1.0000
  C   C16       1.0  0.93880  0.26380  0.85038  1.0000
  C   C17       1.0  0.77770  0.60500  0.30540  1.0000
  C   C18       1.0  0.22230  0.60500  0.19460  1.0000
  C   C19       1.0  0.22230  0.39500  0.69460  1.0000
  C   C20       1.0  0.77770  0.39500  0.80540  1.0000
  C   C21       1.0  0.99910  0.72940  0.44590  1.0000
  C   C22       1.0  0.00090  0.72940  0.05410  1.0000
  C   C23       1.0  0.00090  0.27060  0.55410  1.0000
  C   C24       1.0  0.99910  0.27060  0.94590  1.0000
  H   H1        1.0  0.93790  0.64860  0.47700  1.0000
  H   H2        1.0  0.06210  0.64860  0.02300  1.0000
  H   H3        1.0  0.06210  0.35140  0.52300  1.0000
  H   H4        1.0  0.93790  0.35140  0.97700  1.0000
  C   C25       1.0  0.14740  0.83990  0.49500  1.0000
  C   C26       1.0  0.85260  0.83990  0.00500  1.0000
  C   C27       1.0  0.85260  0.16010  0.50500  1.0000
  C   C28       1.0  0.14740  0.16010  0.99500  1.0000
  H   H5        1.0  0.18750  0.83300  0.55850  1.0000
  H   H6        1.0  0.81250  0.83300  0.94150  1.0000
  H   H7        1.0  0.81250  0.16700  0.44150  1.0000
  H   H8        1.0  0.18750  0.16700  0.05850  1.0000
  C   C29       1.0  0.23460  0.96070  0.44781  1.0000
  C   C30       1.0  0.76540  0.96070  0.05219  1.0000
  C   C31       1.0  0.76540  0.03930  0.55219  1.0000
  C   C32       1.0  0.23460  0.03930  0.94781  1.0000
  H   H9        1.0  0.33370  0.03670  0.48030  1.0000
  H   H10       1.0  0.66630  0.03670  0.01970  1.0000
  H   H11       1.0  0.66630  0.96330  0.51970  1.0000
  H   H12       1.0  0.33370  0.96330  0.98030  1.0000
