data_image0
_chemical_formula_structural       U12O120C120H24
_chemical_formula_sum              "U12 O120 C120 H24"
_cell_length_a       55.631
_cell_length_b       7.1082
_cell_length_c       13.1074
_cell_angle_alpha    90
_cell_angle_beta     95.831
_cell_angle_gamma    90

_space_group_name_H-M_alt    "P 1"
_space_group_IT_number       1

loop_
  _space_group_symop_operation_xyz
  'x, y, z'

loop_
  _atom_site_type_symbol
  _atom_site_label
  _atom_site_symmetry_multiplicity
  _atom_site_fract_x
  _atom_site_fract_y
  _atom_site_fract_z
  _atom_site_occupancy
  U   U1        1.0  0.66695  0.23695  0.41350  1.0000
  U   U2        1.0  0.33305  0.23695  0.08650  1.0000
  U   U3        1.0  0.16695  0.73695  0.41350  1.0000
  U   U4        1.0  0.83305  0.73695  0.08650  1.0000
  U   U5        1.0  0.33305  0.76305  0.58650  1.0000
  U   U6        1.0  0.66695  0.76305  0.91350  1.0000
  U   U7        1.0  0.83305  0.26305  0.58650  1.0000
  U   U8        1.0  0.16695  0.26305  0.91350  1.0000
  U   U9        1.0  0.50000  0.20133  0.25000  1.0000
  U   U10       1.0  0.00000  0.70133  0.25000  1.0000
  U   U11       1.0  0.50000  0.79867  0.75000  1.0000
  U   U12       1.0  0.00000  0.29867  0.75000  1.0000
  O   O1        1.0  0.65943  0.25130  0.54080  1.0000
  O   O2        1.0  0.34057  0.25130  0.95920  1.0000
  O   O3        1.0  0.15943  0.75130  0.54080  1.0000
  O   O4        1.0  0.84057  0.75130  0.95920  1.0000
  O   O5        1.0  0.34057  0.74870  0.45920  1.0000
  O   O6        1.0  0.65943  0.74870  0.04080  1.0000
  O   O7        1.0  0.84057  0.24870  0.45920  1.0000
  O   O8        1.0  0.15943  0.24870  0.04080  1.0000
  O   O9        1.0  0.67434  0.22130  0.28590  1.0000
  O   O10       1.0  0.32566  0.22130  0.21410  1.0000
  O   O11       1.0  0.17434  0.72130  0.28590  1.0000
  O   O12       1.0  0.82566  0.72130  0.21410  1.0000
  O   O13       1.0  0.32566  0.77870  0.71410  1.0000
  O   O14       1.0  0.67434  0.77870  0.78590  1.0000
  O   O15       1.0  0.82566  0.27870  0.71410  1.0000
  O   O16       1.0  0.17434  0.27870  0.78590  1.0000
  O   O17       1.0  0.69573  0.56840  0.60070  1.0000
  O   O18       1.0  0.30427  0.56840  0.89930  1.0000
  O   O19       1.0  0.19573  0.06840  0.60070  1.0000
  O   O20       1.0  0.80427  0.06840  0.89930  1.0000
  O   O21       1.0  0.30427  0.43160  0.39930  1.0000
  O   O22       1.0  0.69573  0.43160  0.10070  1.0000
  O   O23       1.0  0.80427  0.93160  0.39930  1.0000
  O   O24       1.0  0.19573  0.93160  0.10070  1.0000
  O   O25       1.0  0.50673  0.19820  0.12100  1.0000
  O   O26       1.0  0.49327  0.19820  0.37900  1.0000
  O   O27       1.0  0.00673  0.69820  0.12100  1.0000
  O   O28       1.0  0.99327  0.69820  0.37900  1.0000
  O   O29       1.0  0.49327  0.80180  0.87900  1.0000
  O   O30       1.0  0.50673  0.80180  0.62100  1.0000
  O   O31       1.0  0.99327  0.30180  0.87900  1.0000
  O   O32       1.0  0.00673  0.30180  0.62100  1.0000
  O   O33       1.0  0.52558  0.47980  0.26660  1.0000
  O   O34       1.0  0.47442  0.47980  0.23340  1.0000
  O   O35       1.0  0.02558  0.97980  0.26660  1.0000
  O   O36       1.0  0.97442  0.97980  0.23340  1.0000
  O   O37       1.0  0.47442  0.52020  0.73340  1.0000
  O   O38       1.0  0.52558  0.52020  0.76660  1.0000
  O   O39       1.0  0.97442  0.02020  0.73340  1.0000
  O   O40       1.0  0.02558  0.02020  0.76660  1.0000
  O   O41       1.0  0.68719  0.92610  0.45900  1.0000
  O   O42       1.0  0.31281  0.92610  0.04100  1.0000
  O   O43       1.0  0.18719  0.42610  0.45900  1.0000
  O   O44       1.0  0.81281  0.42610  0.04100  1.0000
  O   O45       1.0  0.31281  0.07390  0.54100  1.0000
  O   O46       1.0  0.68719  0.07390  0.95900  1.0000
  O   O47       1.0  0.81281  0.57390  0.54100  1.0000
  O   O48       1.0  0.18719  0.57390  0.95900  1.0000
  O   O49       1.0  0.69307  0.50540  0.43240  1.0000
  O   O50       1.0  0.30693  0.50540  0.06760  1.0000
  O   O51       1.0  0.19307  0.00540  0.43240  1.0000
  O   O52       1.0  0.80693  0.00540  0.06760  1.0000
  O   O53       1.0  0.30693  0.49460  0.56760  1.0000
  O   O54       1.0  0.69307  0.49460  0.93240  1.0000
  O   O55       1.0  0.80693  0.99460  0.56760  1.0000
  O   O56       1.0  0.19307  0.99460  0.93240  1.0000
  O   O57       1.0  0.64644  0.54800  0.36680  1.0000
  O   O58       1.0  0.35356  0.54800  0.13320  1.0000
  O   O59       1.0  0.14644  0.04800  0.36680  1.0000
  O   O60       1.0  0.85356  0.04800  0.13320  1.0000
  O   O61       1.0  0.35356  0.45200  0.63320  1.0000
  O   O62       1.0  0.64644  0.45200  0.86680  1.0000
  O   O63       1.0  0.85356  0.95200  0.63320  1.0000
  O   O64       1.0  0.14644  0.95200  0.86680  1.0000
  O   O65       1.0  0.64091  0.96790  0.39390  1.0000
  O   O66       1.0  0.35909  0.96790  0.10610  1.0000
  O   O67       1.0  0.14091  0.46790  0.39390  1.0000
  O   O68       1.0  0.85909  0.46790  0.10610  1.0000
  O   O69       1.0  0.35909  0.03210  0.60610  1.0000
  O   O70       1.0  0.64091  0.03210  0.89390  1.0000
  O   O71       1.0  0.85909  0.53210  0.60610  1.0000
  O   O72       1.0  0.14091  0.53210  0.89390  1.0000
  O   O73       1.0  0.63656  0.91530  0.22560  1.0000
  O   O74       1.0  0.36344  0.91530  0.27440  1.0000
  O   O75       1.0  0.13656  0.41530  0.22560  1.0000
  O   O76       1.0  0.86344  0.41530  0.27440  1.0000
  O   O77       1.0  0.36344  0.08470  0.77440  1.0000
  O   O78       1.0  0.63656  0.08470  0.72560  1.0000
  O   O79       1.0  0.86344  0.58470  0.77440  1.0000
  O   O80       1.0  0.13656  0.58470  0.72560  1.0000
  O   O81       1.0  0.71088  0.16970  0.46840  1.0000
  O   O82       1.0  0.28912  0.16970  0.03160  1.0000
  O   O83       1.0  0.21088  0.66970  0.46840  1.0000
  O   O84       1.0  0.78912  0.66970  0.03160  1.0000
  O   O85       1.0  0.28912  0.83030  0.53160  1.0000
  O   O86       1.0  0.71088  0.83030  0.96840  1.0000
  O   O87       1.0  0.78912  0.33030  0.53160  1.0000
  O   O88       1.0  0.21088  0.33030  0.96840  1.0000
  O   O89       1.0  0.53034  0.53460  0.43480  1.0000
  O   O90       1.0  0.46966  0.53460  0.06520  1.0000
  O   O91       1.0  0.03034  0.03460  0.43480  1.0000
  O   O92       1.0  0.96966  0.03460  0.06520  1.0000
  O   O93       1.0  0.46966  0.46540  0.56520  1.0000
  O   O94       1.0  0.53034  0.46540  0.93480  1.0000
  O   O95       1.0  0.96966  0.96540  0.56520  1.0000
  O   O96       1.0  0.03034  0.96540  0.93480  1.0000
  O   O97       1.0  0.62286  0.30380  0.36060  1.0000
  O   O98       1.0  0.37714  0.30380  0.13940  1.0000
  O   O99       1.0  0.12286  0.80380  0.36060  1.0000
  O   O100      1.0  0.87714  0.80380  0.13940  1.0000
  O   O101      1.0  0.37714  0.69620  0.63940  1.0000
  O   O102      1.0  0.62286  0.69620  0.86060  1.0000
  O   O103      1.0  0.87714  0.19620  0.63940  1.0000
  O   O104      1.0  0.12286  0.19620  0.86060  1.0000
  O   O105      1.0  0.52097  0.89860  0.30020  1.0000
  O   O106      1.0  0.47903  0.89860  0.19980  1.0000
  O   O107      1.0  0.02097  0.39860  0.30020  1.0000
  O   O108      1.0  0.97903  0.39860  0.19980  1.0000
  O   O109      1.0  0.47903  0.10140  0.69980  1.0000
  O   O110      1.0  0.52097  0.10140  0.80020  1.0000
  O   O111      1.0  0.97903  0.60140  0.69980  1.0000
  O   O112      1.0  0.02097  0.60140  0.80020  1.0000
  O   O113      1.0  0.54456  0.14090  0.29780  1.0000
  O   O114      1.0  0.45544  0.14090  0.20220  1.0000
  O   O115      1.0  0.04456  0.64090  0.29780  1.0000
  O   O116      1.0  0.95544  0.64090  0.20220  1.0000
  O   O117      1.0  0.45544  0.85910  0.70220  1.0000
  O   O118      1.0  0.54456  0.85910  0.79780  1.0000
  O   O119      1.0  0.95544  0.35910  0.70220  1.0000
  O   O120      1.0  0.04456  0.35910  0.79780  1.0000
  C   C1        1.0  0.53674  0.54840  0.34740  1.0000
  C   C2        1.0  0.46326  0.54840  0.15260  1.0000
  C   C3        1.0  0.03674  0.04840  0.34740  1.0000
  C   C4        1.0  0.96326  0.04840  0.15260  1.0000
  C   C5        1.0  0.46326  0.45160  0.65260  1.0000
  C   C6        1.0  0.53674  0.45160  0.84740  1.0000
  C   C7        1.0  0.96326  0.95160  0.65260  1.0000
  C   C8        1.0  0.03674  0.95160  0.84740  1.0000
  C   C9        1.0  0.70309  0.57840  0.51410  1.0000
  C   C10       1.0  0.29691  0.57840  0.98590  1.0000
  C   C11       1.0  0.20309  0.07840  0.51410  1.0000
  C   C12       1.0  0.79691  0.07840  0.98590  1.0000
  C   C13       1.0  0.29691  0.42160  0.48590  1.0000
  C   C14       1.0  0.70309  0.42160  0.01410  1.0000
  C   C15       1.0  0.79691  0.92160  0.48590  1.0000
  C   C16       1.0  0.20309  0.92160  0.01410  1.0000
  C   C17       1.0  0.56054  0.64410  0.33620  1.0000
  C   C18       1.0  0.43946  0.64410  0.16380  1.0000
  C   C19       1.0  0.06054  0.14410  0.33620  1.0000
  C   C20       1.0  0.93946  0.14410  0.16380  1.0000
  C   C21       1.0  0.43946  0.35590  0.66380  1.0000
  C   C22       1.0  0.56054  0.35590  0.83620  1.0000
  C   C23       1.0  0.93946  0.85590  0.66380  1.0000
  C   C24       1.0  0.06054  0.85590  0.83620  1.0000
  C   C25       1.0  0.60659  0.79950  0.32430  1.0000
  C   C26       1.0  0.39341  0.79950  0.17570  1.0000
  C   C27       1.0  0.10659  0.29950  0.32430  1.0000
  C   C28       1.0  0.89341  0.29950  0.17570  1.0000
  C   C29       1.0  0.39341  0.20050  0.67570  1.0000
  C   C30       1.0  0.60659  0.20050  0.82430  1.0000
  C   C31       1.0  0.89341  0.70050  0.67570  1.0000
  C   C32       1.0  0.10659  0.70050  0.82430  1.0000
  C   C33       1.0  0.74755  0.55910  0.51540  1.0000
  C   C34       1.0  0.25245  0.55910  0.98460  1.0000
  C   C35       1.0  0.24755  0.05910  0.51540  1.0000
  C   C36       1.0  0.75245  0.05910  0.98460  1.0000
  C   C37       1.0  0.25245  0.44090  0.48460  1.0000
  C   C38       1.0  0.74755  0.44090  0.01540  1.0000
  C   C39       1.0  0.75245  0.94090  0.48460  1.0000
  C   C40       1.0  0.24755  0.94090  0.01540  1.0000
  C   C41       1.0  0.58603  0.91370  0.31460  1.0000
  C   C42       1.0  0.41397  0.91370  0.18540  1.0000
  C   C43       1.0  0.08603  0.41370  0.31460  1.0000
  C   C44       1.0  0.91397  0.41370  0.18540  1.0000
  C   C45       1.0  0.41397  0.08630  0.68540  1.0000
  C   C46       1.0  0.58603  0.08630  0.81460  1.0000
  C   C47       1.0  0.91397  0.58630  0.68540  1.0000
  C   C48       1.0  0.08603  0.58630  0.81460  1.0000
  C   C49       1.0  0.56317  0.83730  0.32110  1.0000
  C   C50       1.0  0.43683  0.83730  0.17890  1.0000
  C   C51       1.0  0.06317  0.33730  0.32110  1.0000
  C   C52       1.0  0.93683  0.33730  0.17890  1.0000
  C   C53       1.0  0.43683  0.16270  0.67890  1.0000
  C   C54       1.0  0.56317  0.16270  0.82110  1.0000
  C   C55       1.0  0.93683  0.66270  0.67890  1.0000
  C   C56       1.0  0.06317  0.66270  0.82110  1.0000
  C   C57       1.0  0.72964  0.86680  0.48920  1.0000
  C   C58       1.0  0.27036  0.86680  0.01080  1.0000
  C   C59       1.0  0.22964  0.36680  0.48920  1.0000
  C   C60       1.0  0.77036  0.36680  0.01080  1.0000
  C   C61       1.0  0.27036  0.13320  0.51080  1.0000
  C   C62       1.0  0.72964  0.13320  0.98920  1.0000
  C   C63       1.0  0.77036  0.63320  0.51080  1.0000
  C   C64       1.0  0.22964  0.63320  0.98920  1.0000
  C   C65       1.0  0.58105  0.53110  0.34570  1.0000
  C   C66       1.0  0.41895  0.53110  0.15430  1.0000
  C   C67       1.0  0.08105  0.03110  0.34570  1.0000
  C   C68       1.0  0.91895  0.03110  0.15430  1.0000
  C   C69       1.0  0.41895  0.46890  0.65430  1.0000
  C   C70       1.0  0.58105  0.46890  0.84570  1.0000
  C   C71       1.0  0.91895  0.96890  0.65430  1.0000
  C   C72       1.0  0.08105  0.96890  0.84570  1.0000
  C   C73       1.0  0.72707  0.67440  0.50560  1.0000
  C   C74       1.0  0.27293  0.67440  0.99440  1.0000
  C   C75       1.0  0.22707  0.17440  0.50560  1.0000
  C   C76       1.0  0.77293  0.17440  0.99440  1.0000
  C   C77       1.0  0.27293  0.32560  0.49440  1.0000
  C   C78       1.0  0.72707  0.32560  0.00560  1.0000
  C   C79       1.0  0.77293  0.82560  0.49440  1.0000
  C   C80       1.0  0.22707  0.82560  0.00560  1.0000
  C   C81       1.0  0.60399  0.60610  0.34000  1.0000
  C   C82       1.0  0.39601  0.60610  0.16000  1.0000
  C   C83       1.0  0.10399  0.10610  0.34000  1.0000
  C   C84       1.0  0.89601  0.10610  0.16000  1.0000
  C   C85       1.0  0.39601  0.39390  0.66000  1.0000
  C   C86       1.0  0.60399  0.39390  0.84000  1.0000
  C   C87       1.0  0.89601  0.89390  0.66000  1.0000
  C   C88       1.0  0.10399  0.89390  0.84000  1.0000
  C   C89       1.0  0.70816  0.99480  0.47260  1.0000
  C   C90       1.0  0.29184  0.99480  0.02740  1.0000
  C   C91       1.0  0.20816  0.49480  0.47260  1.0000
  C   C92       1.0  0.79184  0.49480  0.02740  1.0000
  C   C93       1.0  0.29184  0.00520  0.52740  1.0000
  C   C94       1.0  0.70816  0.00520  0.97260  1.0000
  C   C95       1.0  0.79184  0.50520  0.52740  1.0000
  C   C96       1.0  0.20816  0.50520  0.97260  1.0000
  C   C97       1.0  0.62549  0.47950  0.35500  1.0000
  C   C98       1.0  0.37451  0.47950  0.14500  1.0000
  C   C99       1.0  0.12549  0.97950  0.35500  1.0000
  C   C100      1.0  0.87451  0.97950  0.14500  1.0000
  C   C101      1.0  0.37451  0.52050  0.64500  1.0000
  C   C102      1.0  0.62549  0.52050  0.85500  1.0000
  C   C103      1.0  0.87451  0.02050  0.64500  1.0000
  C   C104      1.0  0.12549  0.02050  0.85500  1.0000
  C   C105      1.0  0.63003  0.89860  0.31350  1.0000
  C   C106      1.0  0.36997  0.89860  0.18650  1.0000
  C   C107      1.0  0.13003  0.39860  0.31350  1.0000
  C   C108      1.0  0.86997  0.39860  0.18650  1.0000
  C   C109      1.0  0.36997  0.10140  0.68650  1.0000
  C   C110      1.0  0.63003  0.10140  0.81350  1.0000
  C   C111      1.0  0.86997  0.60140  0.68650  1.0000
  C   C112      1.0  0.13003  0.60140  0.81350  1.0000
  C   C113      1.0  0.54198  0.96660  0.30770  1.0000
  C   C114      1.0  0.45802  0.96660  0.19230  1.0000
  C   C115      1.0  0.04198  0.46660  0.30770  1.0000
  C   C116      1.0  0.95802  0.46660  0.19230  1.0000
  C   C117      1.0  0.45802  0.03340  0.69230  1.0000
  C   C118      1.0  0.54198  0.03340  0.80770  1.0000
  C   C119      1.0  0.95802  0.53340  0.69230  1.0000
  C   C120      1.0  0.04198  0.53340  0.80770  1.0000
  H   H1        1.0  0.74572  0.42633  0.52557  1.0000
  H   H2        1.0  0.25428  0.42633  0.97443  1.0000
  H   H3        1.0  0.24572  0.92633  0.52557  1.0000
  H   H4        1.0  0.75428  0.92633  0.97443  1.0000
  H   H5        1.0  0.25428  0.57367  0.47443  1.0000
  H   H6        1.0  0.74572  0.57367  0.02557  1.0000
  H   H7        1.0  0.75428  0.07367  0.47443  1.0000
  H   H8        1.0  0.24572  0.07367  0.02557  1.0000
  H   H9        1.0  0.58767  0.04631  0.30334  1.0000
  H   H10       1.0  0.41233  0.04631  0.19666  1.0000
  H   H11       1.0  0.08767  0.54631  0.30334  1.0000
  H   H12       1.0  0.91233  0.54631  0.19666  1.0000
  H   H13       1.0  0.41233  0.95369  0.69666  1.0000
  H   H14       1.0  0.58767  0.95369  0.80334  1.0000
  H   H15       1.0  0.91233  0.45369  0.69666  1.0000
  H   H16       1.0  0.08767  0.45369  0.80334  1.0000
  H   H17       1.0  0.57935  0.39833  0.35640  1.0000
  H   H18       1.0  0.42065  0.39833  0.14360  1.0000
  H   H19       1.0  0.07935  0.89833  0.35640  1.0000
  H   H20       1.0  0.92065  0.89833  0.14360  1.0000
  H   H21       1.0  0.42065  0.60167  0.64360  1.0000
  H   H22       1.0  0.57935  0.60167  0.85640  1.0000
  H   H23       1.0  0.92065  0.10167  0.64360  1.0000
  H   H24       1.0  0.07935  0.10167  0.85640  1.0000
