data_image0
_chemical_formula_structural       O4N2O2N2O4N2O2C4N2C4O2C6H2C2H2C4H2C4H2Li6O2H4O4H4
_chemical_formula_sum              "O20 N8 C24 H16 Li6"
_cell_length_a       5.215
_cell_length_b       7.3356
_cell_length_c       24.001
_cell_angle_alpha    97.62
_cell_angle_beta     90.62
_cell_angle_gamma    95.77

_space_group_name_H-M_alt    "P 1"
_space_group_IT_number       1

loop_
  _space_group_symop_operation_xyz
  'x, y, z'

loop_
  _atom_site_type_symbol
  _atom_site_label
  _atom_site_symmetry_multiplicity
  _atom_site_fract_x
  _atom_site_fract_y
  _atom_site_fract_z
  _atom_site_occupancy
  O   O1        1.0  0.56590  0.69580  0.89800  1.0000
  O   O2        1.0  0.43410  0.30420  0.10200  1.0000
  O   O3        1.0  0.16880  0.69420  0.56969  1.0000
  O   O4        1.0  0.83120  0.30580  0.43031  1.0000
  N   N1        1.0  0.71010  0.84830  0.00022  1.0000
  N   N2        1.0  0.28990  0.15170  0.99978  1.0000
  O   O5        1.0  0.57360  0.78870  0.60076  1.0000
  O   O6        1.0  0.42640  0.21130  0.39924  1.0000
  N   N3        1.0  0.79930  0.87370  0.44798  1.0000
  N   N4        1.0  0.20070  0.12630  0.55202  1.0000
  O   O7        1.0  0.68180  0.92040  0.19576  1.0000
  O   O8        1.0  0.31820  0.07960  0.80424  1.0000
  O   O9        1.0  0.16240  0.62660  0.92501  1.0000
  O   O10       1.0  0.83760  0.37340  0.07499  1.0000
  N   N5        1.0  0.71150  0.84890  0.49847  1.0000
  N   N6        1.0  0.28850  0.15110  0.50153  1.0000
  O   O11       1.0  0.98600  0.07900  0.15156  1.0000
  O   O12       1.0  0.01400  0.92100  0.84844  1.0000
  C   C1        1.0  0.66410  0.88410  0.09640  1.0000
  C   C2        1.0  0.33590  0.11590  0.90360  1.0000
  C   C3        1.0  0.40280  0.74280  0.56305  1.0000
  C   C4        1.0  0.59720  0.25720  0.43695  1.0000
  N   N7        1.0  0.79990  0.92090  0.05164  1.0000
  N   N8        1.0  0.20010  0.07910  0.94836  1.0000
  C   C5        1.0  0.78760  0.96990  0.15267  1.0000
  C   C6        1.0  0.21240  0.03010  0.84733  1.0000
  C   C7        1.0  0.78810  0.82500  0.34710  1.0000
  C   C8        1.0  0.21190  0.17500  0.65290  1.0000
  O   O13       1.0  0.97420  0.94790  0.34981  1.0000
  O   O14       1.0  0.02580  0.05210  0.65019  1.0000
  C   C9        1.0  0.66600  0.79160  0.40213  1.0000
  C   C10       1.0  0.33400  0.20840  0.59787  1.0000
  C   C11       1.0  0.39450  0.68340  0.93358  1.0000
  C   C12       1.0  0.60550  0.31660  0.06642  1.0000
  C   C13       1.0  0.33680  0.66330  0.45630  1.0000
  C   C14       1.0  0.66320  0.33670  0.54370  1.0000
  H   H1        1.0  0.17870  0.59620  0.46050  1.0000
  H   H2        1.0  0.82130  0.40380  0.53950  1.0000
  C   C15       1.0  0.42720  0.77630  0.09217  1.0000
  C   C16       1.0  0.57280  0.22370  0.90783  1.0000
  H   H3        1.0  0.33700  0.75240  0.12410  1.0000
  H   H4        1.0  0.66300  0.24760  0.87590  1.0000
  C   C17       1.0  0.48070  0.74640  0.99448  1.0000
  C   C18       1.0  0.51930  0.25360  0.00552  1.0000
  C   C19       1.0  0.33190  0.70710  0.03952  1.0000
  C   C20       1.0  0.66810  0.29290  0.96048  1.0000
  H   H5        1.0  0.17320  0.63620  0.03420  1.0000
  H   H6        1.0  0.82680  0.36380  0.96580  1.0000
  C   C21       1.0  0.48590  0.74990  0.50274  1.0000
  C   C22       1.0  0.51410  0.25010  0.49726  1.0000
  C   C23       1.0  0.43320  0.68140  0.40447  1.0000
  C   C24       1.0  0.56680  0.31860  0.59553  1.0000
  H   H7        1.0  0.34680  0.62250  0.37190  1.0000
  H   H8        1.0  0.65320  0.37750  0.62810  1.0000
  Li  Li1       1.0  0.08240  0.09990  0.42230  1.0000
  Li  Li2       1.0  0.91760  0.90010  0.57770  1.0000
  Li  Li3       1.0  0.08990  0.17030  0.07960  1.0000
  Li  Li4       1.0  0.91010  0.82970  0.92040  1.0000
  Li  Li5       1.0  0.71030  0.68950  0.22480  1.0000
  Li  Li6       1.0  0.28970  0.31050  0.77520  1.0000
  O   O15       1.0  0.44890  0.47880  0.20777  1.0000
  O   O16       1.0  0.55110  0.52120  0.79223  1.0000
  H   H9        1.0  0.44900  0.40400  0.23000  1.0000
  H   H10       1.0  0.55100  0.59600  0.77000  1.0000
  H   H11       1.0  0.44900  0.42600  0.17000  1.0000
  H   H12       1.0  0.55100  0.57400  0.83000  1.0000
  O   O17       1.0  0.98710  0.59470  0.18013  1.0000
  O   O18       1.0  0.01290  0.40530  0.81987  1.0000
  O   O19       1.0  0.69970  0.72390  0.30427  1.0000
  O   O20       1.0  0.30030  0.27610  0.69573  1.0000
  H   H13       1.0  0.97700  0.52400  0.15010  1.0000
  H   H14       1.0  0.02300  0.47600  0.84990  1.0000
  H   H15       1.0  0.11200  0.55900  0.19500  1.0000
  H   H16       1.0  0.88800  0.44100  0.80500  1.0000
