data_image0
_chemical_formula_structural       Cu48O224H32O8H16O8H16N16H16N40H8N16C32H16C48H16C16H16C64H16C32H16C32H16C96H16C32H16C32H16C56H8
_chemical_formula_sum              "Cu48 O240 H240 N72 C440"
_cell_length_a       26.9768
_cell_length_b       26.9768
_cell_length_c       39.206
_cell_angle_alpha    90
_cell_angle_beta     90
_cell_angle_gamma    90

_space_group_name_H-M_alt    "P 1"
_space_group_IT_number       1

loop_
  _space_group_symop_operation_xyz
  'x, y, z'

loop_
  _atom_site_type_symbol
  _atom_site_label
  _atom_site_symmetry_multiplicity
  _atom_site_fract_x
  _atom_site_fract_y
  _atom_site_fract_z
  _atom_site_occupancy
  Cu  Cu1       1.0  0.12650  0.24749  0.30212  1.0000
  Cu  Cu2       1.0  0.75251  0.12650  0.30212  1.0000
  Cu  Cu3       1.0  0.87350  0.75251  0.30212  1.0000
  Cu  Cu4       1.0  0.24749  0.87350  0.30212  1.0000
  Cu  Cu5       1.0  0.62650  0.25251  0.19788  1.0000
  Cu  Cu6       1.0  0.74749  0.62650  0.19788  1.0000
  Cu  Cu7       1.0  0.37350  0.74749  0.19788  1.0000
  Cu  Cu8       1.0  0.25251  0.37350  0.19788  1.0000
  Cu  Cu9       1.0  0.87350  0.75251  0.69788  1.0000
  Cu  Cu10      1.0  0.24749  0.87350  0.69788  1.0000
  Cu  Cu11      1.0  0.12650  0.24749  0.69788  1.0000
  Cu  Cu12      1.0  0.75251  0.12650  0.69788  1.0000
  Cu  Cu13      1.0  0.37350  0.74749  0.80212  1.0000
  Cu  Cu14      1.0  0.25251  0.37350  0.80212  1.0000
  Cu  Cu15      1.0  0.62650  0.25251  0.80212  1.0000
  Cu  Cu16      1.0  0.74749  0.62650  0.80212  1.0000
  Cu  Cu17      1.0  0.09332  0.18407  0.34925  1.0000
  Cu  Cu18      1.0  0.81593  0.09332  0.34925  1.0000
  Cu  Cu19      1.0  0.90668  0.81593  0.34925  1.0000
  Cu  Cu20      1.0  0.18407  0.90668  0.34925  1.0000
  Cu  Cu21      1.0  0.59332  0.31593  0.15075  1.0000
  Cu  Cu22      1.0  0.68407  0.59332  0.15075  1.0000
  Cu  Cu23      1.0  0.40668  0.68407  0.15075  1.0000
  Cu  Cu24      1.0  0.31593  0.40668  0.15075  1.0000
  Cu  Cu25      1.0  0.90668  0.81593  0.65075  1.0000
  Cu  Cu26      1.0  0.18407  0.90668  0.65075  1.0000
  Cu  Cu27      1.0  0.09332  0.18407  0.65075  1.0000
  Cu  Cu28      1.0  0.81593  0.09332  0.65075  1.0000
  Cu  Cu29      1.0  0.40668  0.68407  0.84925  1.0000
  Cu  Cu30      1.0  0.31593  0.40668  0.84925  1.0000
  Cu  Cu31      1.0  0.59332  0.31593  0.84925  1.0000
  Cu  Cu32      1.0  0.68407  0.59332  0.84925  1.0000
  Cu  Cu33      1.0  0.91484  0.27342  0.50000  1.0000
  Cu  Cu34      1.0  0.72658  0.91484  0.50000  1.0000
  Cu  Cu35      1.0  0.08516  0.72658  0.50000  1.0000
  Cu  Cu36      1.0  0.27342  0.08516  0.50000  1.0000
  Cu  Cu37      1.0  0.41484  0.22658  0.00000  1.0000
  Cu  Cu38      1.0  0.77342  0.41484  0.00000  1.0000
  Cu  Cu39      1.0  0.58516  0.77342  0.00000  1.0000
  Cu  Cu40      1.0  0.22658  0.58516  0.00000  1.0000
  Cu  Cu41      1.0  0.88440  0.36735  0.50000  1.0000
  Cu  Cu42      1.0  0.63265  0.88440  0.50000  1.0000
  Cu  Cu43      1.0  0.11560  0.63265  0.50000  1.0000
  Cu  Cu44      1.0  0.36735  0.11560  0.50000  1.0000
  Cu  Cu45      1.0  0.38440  0.13265  0.00000  1.0000
  Cu  Cu46      1.0  0.86735  0.38440  0.00000  1.0000
  Cu  Cu47      1.0  0.61560  0.86735  0.00000  1.0000
  Cu  Cu48      1.0  0.13265  0.61560  0.00000  1.0000
  O   O1        1.0  0.15024  0.18552  0.28192  1.0000
  O   O2        1.0  0.81448  0.15024  0.28192  1.0000
  O   O3        1.0  0.84976  0.81448  0.28192  1.0000
  O   O4        1.0  0.18552  0.84976  0.28192  1.0000
  O   O5        1.0  0.65024  0.31448  0.21808  1.0000
  O   O6        1.0  0.68552  0.65024  0.21808  1.0000
  O   O7        1.0  0.34976  0.68552  0.21808  1.0000
  O   O8        1.0  0.31448  0.34976  0.21808  1.0000
  O   O9        1.0  0.84976  0.81448  0.71808  1.0000
  O   O10       1.0  0.18552  0.84976  0.71808  1.0000
  O   O11       1.0  0.15024  0.18552  0.71808  1.0000
  O   O12       1.0  0.81448  0.15024  0.71808  1.0000
  O   O13       1.0  0.34976  0.68552  0.78192  1.0000
  O   O14       1.0  0.31448  0.34976  0.78192  1.0000
  O   O15       1.0  0.65024  0.31448  0.78192  1.0000
  O   O16       1.0  0.68552  0.65024  0.78192  1.0000
  O   O17       1.0  0.12634  0.13275  0.32270  1.0000
  O   O18       1.0  0.86725  0.12634  0.32270  1.0000
  O   O19       1.0  0.87366  0.86725  0.32270  1.0000
  O   O20       1.0  0.13275  0.87366  0.32270  1.0000
  O   O21       1.0  0.62634  0.36725  0.17730  1.0000
  O   O22       1.0  0.63275  0.62634  0.17730  1.0000
  O   O23       1.0  0.37366  0.63275  0.17730  1.0000
  O   O24       1.0  0.36725  0.37366  0.17730  1.0000
  O   O25       1.0  0.87366  0.86725  0.67730  1.0000
  O   O26       1.0  0.13275  0.87366  0.67730  1.0000
  O   O27       1.0  0.12634  0.13275  0.67730  1.0000
  O   O28       1.0  0.86725  0.12634  0.67730  1.0000
  O   O29       1.0  0.37366  0.63275  0.82270  1.0000
  O   O30       1.0  0.36725  0.37366  0.82270  1.0000
  O   O31       1.0  0.62634  0.36725  0.82270  1.0000
  O   O32       1.0  0.63275  0.62634  0.82270  1.0000
  O   O33       1.0  0.18193  0.96260  0.31755  1.0000
  O   O34       1.0  0.03740  0.18193  0.31755  1.0000
  O   O35       1.0  0.81807  0.03740  0.31755  1.0000
  O   O36       1.0  0.96260  0.81807  0.31755  1.0000
  O   O37       1.0  0.68193  0.53740  0.18245  1.0000
  O   O38       1.0  0.46260  0.68193  0.18245  1.0000
  O   O39       1.0  0.31807  0.46260  0.18245  1.0000
  O   O40       1.0  0.53740  0.31807  0.18245  1.0000
  O   O41       1.0  0.81807  0.03740  0.68245  1.0000
  O   O42       1.0  0.96260  0.81807  0.68245  1.0000
  O   O43       1.0  0.18193  0.96260  0.68245  1.0000
  O   O44       1.0  0.03740  0.18193  0.68245  1.0000
  O   O45       1.0  0.31807  0.46260  0.81755  1.0000
  O   O46       1.0  0.53740  0.31807  0.81755  1.0000
  O   O47       1.0  0.68193  0.53740  0.81755  1.0000
  O   O48       1.0  0.46260  0.68193  0.81755  1.0000
  O   O49       1.0  0.23647  0.93760  0.27835  1.0000
  O   O50       1.0  0.06240  0.23647  0.27835  1.0000
  O   O51       1.0  0.76353  0.06240  0.27835  1.0000
  O   O52       1.0  0.93760  0.76353  0.27835  1.0000
  O   O53       1.0  0.73647  0.56240  0.22165  1.0000
  O   O54       1.0  0.43760  0.73647  0.22165  1.0000
  O   O55       1.0  0.26353  0.43760  0.22165  1.0000
  O   O56       1.0  0.56240  0.26353  0.22165  1.0000
  O   O57       1.0  0.76353  0.06240  0.72165  1.0000
  O   O58       1.0  0.93760  0.76353  0.72165  1.0000
  O   O59       1.0  0.23647  0.93760  0.72165  1.0000
  O   O60       1.0  0.06240  0.23647  0.72165  1.0000
  O   O61       1.0  0.26353  0.43760  0.77835  1.0000
  O   O62       1.0  0.56240  0.26353  0.77835  1.0000
  O   O63       1.0  0.73647  0.56240  0.77835  1.0000
  O   O64       1.0  0.43760  0.73647  0.77835  1.0000
  O   O65       1.0  0.33932  0.15500  0.03562  1.0000
  O   O66       1.0  0.84500  0.33932  0.03562  1.0000
  O   O67       1.0  0.66068  0.84500  0.03562  1.0000
  O   O68       1.0  0.15500  0.66068  0.03562  1.0000
  O   O69       1.0  0.83932  0.34500  0.46438  1.0000
  O   O70       1.0  0.65500  0.83932  0.46438  1.0000
  O   O71       1.0  0.16068  0.65500  0.46438  1.0000
  O   O72       1.0  0.34500  0.16068  0.46438  1.0000
  O   O73       1.0  0.66068  0.84500  0.96438  1.0000
  O   O74       1.0  0.15500  0.66068  0.96438  1.0000
  O   O75       1.0  0.33932  0.15500  0.96438  1.0000
  O   O76       1.0  0.84500  0.33932  0.96438  1.0000
  O   O77       1.0  0.16068  0.65500  0.53562  1.0000
  O   O78       1.0  0.34500  0.16068  0.53562  1.0000
  O   O79       1.0  0.83932  0.34500  0.53562  1.0000
  O   O80       1.0  0.65500  0.83932  0.53562  1.0000
  O   O81       1.0  0.36412  0.23370  0.03596  1.0000
  O   O82       1.0  0.76630  0.36412  0.03596  1.0000
  O   O83       1.0  0.63588  0.76630  0.03596  1.0000
  O   O84       1.0  0.23370  0.63588  0.03596  1.0000
  O   O85       1.0  0.86412  0.26630  0.46404  1.0000
  O   O86       1.0  0.73370  0.86412  0.46404  1.0000
  O   O87       1.0  0.13588  0.73370  0.46404  1.0000
  O   O88       1.0  0.26630  0.13588  0.46404  1.0000
  O   O89       1.0  0.63588  0.76630  0.96404  1.0000
  O   O90       1.0  0.23370  0.63588  0.96404  1.0000
  O   O91       1.0  0.36412  0.23370  0.96404  1.0000
  O   O92       1.0  0.76630  0.36412  0.96404  1.0000
  O   O93       1.0  0.13588  0.73370  0.53596  1.0000
  O   O94       1.0  0.26630  0.13588  0.53596  1.0000
  O   O95       1.0  0.86412  0.26630  0.53596  1.0000
  O   O96       1.0  0.73370  0.86412  0.53596  1.0000
  O   O97       1.0  0.30528  0.34418  0.12699  1.0000
  O   O98       1.0  0.65582  0.30528  0.12699  1.0000
  O   O99       1.0  0.69472  0.65582  0.12699  1.0000
  O   O100      1.0  0.34418  0.69472  0.12699  1.0000
  O   O101      1.0  0.80528  0.15582  0.37301  1.0000
  O   O102      1.0  0.84418  0.80528  0.37301  1.0000
  O   O103      1.0  0.19472  0.84418  0.37301  1.0000
  O   O104      1.0  0.15582  0.19472  0.37301  1.0000
  O   O105      1.0  0.69472  0.65582  0.87301  1.0000
  O   O106      1.0  0.34418  0.69472  0.87301  1.0000
  O   O107      1.0  0.30528  0.34418  0.87301  1.0000
  O   O108      1.0  0.65582  0.30528  0.87301  1.0000
  O   O109      1.0  0.19472  0.84418  0.62699  1.0000
  O   O110      1.0  0.15582  0.19472  0.62699  1.0000
  O   O111      1.0  0.80528  0.15582  0.62699  1.0000
  O   O112      1.0  0.84418  0.80528  0.62699  1.0000
  O   O113      1.0  0.25408  0.31516  0.16705  1.0000
  O   O114      1.0  0.68484  0.25408  0.16705  1.0000
  O   O115      1.0  0.74592  0.68484  0.16705  1.0000
  O   O116      1.0  0.31516  0.74592  0.16705  1.0000
  O   O117      1.0  0.75408  0.18484  0.33295  1.0000
  O   O118      1.0  0.81516  0.75408  0.33295  1.0000
  O   O119      1.0  0.24592  0.81516  0.33295  1.0000
  O   O120      1.0  0.18484  0.24592  0.33295  1.0000
  O   O121      1.0  0.74592  0.68484  0.83295  1.0000
  O   O122      1.0  0.31516  0.74592  0.83295  1.0000
  O   O123      1.0  0.25408  0.31516  0.83295  1.0000
  O   O124      1.0  0.68484  0.25408  0.83295  1.0000
  O   O125      1.0  0.24592  0.81516  0.66705  1.0000
  O   O126      1.0  0.18484  0.24592  0.66705  1.0000
  O   O127      1.0  0.75408  0.18484  0.66705  1.0000
  O   O128      1.0  0.81516  0.75408  0.66705  1.0000
  O   O129      1.0  0.06595  0.24426  0.36913  1.0000
  O   O130      1.0  0.75574  0.06595  0.36913  1.0000
  O   O131      1.0  0.93405  0.75574  0.36913  1.0000
  O   O132      1.0  0.24426  0.93405  0.36913  1.0000
  O   O133      1.0  0.56595  0.25574  0.13087  1.0000
  O   O134      1.0  0.74426  0.56595  0.13087  1.0000
  O   O135      1.0  0.43405  0.74426  0.13087  1.0000
  O   O136      1.0  0.25574  0.43405  0.13087  1.0000
  O   O137      1.0  0.93405  0.75574  0.63087  1.0000
  O   O138      1.0  0.24426  0.93405  0.63087  1.0000
  O   O139      1.0  0.06595  0.24426  0.63087  1.0000
  O   O140      1.0  0.75574  0.06595  0.63087  1.0000
  O   O141      1.0  0.43405  0.74426  0.86913  1.0000
  O   O142      1.0  0.25574  0.43405  0.86913  1.0000
  O   O143      1.0  0.56595  0.25574  0.86913  1.0000
  O   O144      1.0  0.74426  0.56595  0.86913  1.0000
  O   O145      1.0  0.09383  0.29808  0.33050  1.0000
  O   O146      1.0  0.70192  0.09383  0.33050  1.0000
  O   O147      1.0  0.90617  0.70192  0.33050  1.0000
  O   O148      1.0  0.29808  0.90617  0.33050  1.0000
  O   O149      1.0  0.59383  0.20192  0.16950  1.0000
  O   O150      1.0  0.79808  0.59383  0.16950  1.0000
  O   O151      1.0  0.40617  0.79808  0.16950  1.0000
  O   O152      1.0  0.20192  0.40617  0.16950  1.0000
  O   O153      1.0  0.90617  0.70192  0.66950  1.0000
  O   O154      1.0  0.29808  0.90617  0.66950  1.0000
  O   O155      1.0  0.09383  0.29808  0.66950  1.0000
  O   O156      1.0  0.70192  0.09383  0.66950  1.0000
  O   O157      1.0  0.40617  0.79808  0.83050  1.0000
  O   O158      1.0  0.20192  0.40617  0.83050  1.0000
  O   O159      1.0  0.59383  0.20192  0.83050  1.0000
  O   O160      1.0  0.79808  0.59383  0.83050  1.0000
  O   O161      1.0  0.96054  0.29626  0.46388  1.0000
  O   O162      1.0  0.70374  0.96054  0.46388  1.0000
  O   O163      1.0  0.03946  0.70374  0.46388  1.0000
  O   O164      1.0  0.29626  0.03946  0.46388  1.0000
  O   O165      1.0  0.46054  0.20374  0.03612  1.0000
  O   O166      1.0  0.79626  0.46054  0.03612  1.0000
  O   O167      1.0  0.53946  0.79626  0.03612  1.0000
  O   O168      1.0  0.20374  0.53946  0.03612  1.0000
  O   O169      1.0  0.03946  0.70374  0.53612  1.0000
  O   O170      1.0  0.29626  0.03946  0.53612  1.0000
  O   O171      1.0  0.96054  0.29626  0.53612  1.0000
  O   O172      1.0  0.70374  0.96054  0.53612  1.0000
  O   O173      1.0  0.53946  0.79626  0.96388  1.0000
  O   O174      1.0  0.20374  0.53946  0.96388  1.0000
  O   O175      1.0  0.46054  0.20374  0.96388  1.0000
  O   O176      1.0  0.79626  0.46054  0.96388  1.0000
  O   O177      1.0  0.93472  0.37521  0.46488  1.0000
  O   O178      1.0  0.62479  0.93472  0.46488  1.0000
  O   O179      1.0  0.06528  0.62479  0.46488  1.0000
  O   O180      1.0  0.37521  0.06528  0.46488  1.0000
  O   O181      1.0  0.43472  0.12479  0.03512  1.0000
  O   O182      1.0  0.87521  0.43472  0.03512  1.0000
  O   O183      1.0  0.56528  0.87521  0.03512  1.0000
  O   O184      1.0  0.12479  0.56528  0.03512  1.0000
  O   O185      1.0  0.06528  0.62479  0.53512  1.0000
  O   O186      1.0  0.37521  0.06528  0.53512  1.0000
  O   O187      1.0  0.93472  0.37521  0.53512  1.0000
  O   O188      1.0  0.62479  0.93472  0.53512  1.0000
  O   O189      1.0  0.56528  0.87521  0.96488  1.0000
  O   O190      1.0  0.12479  0.56528  0.96488  1.0000
  O   O191      1.0  0.43472  0.12479  0.96488  1.0000
  O   O192      1.0  0.87521  0.43472  0.96488  1.0000
  O   O193      1.0  0.15405  0.30083  0.26708  1.0000
  O   O194      1.0  0.69917  0.15405  0.26708  1.0000
  O   O195      1.0  0.84595  0.69917  0.26708  1.0000
  O   O196      1.0  0.30083  0.84595  0.26708  1.0000
  O   O197      1.0  0.65405  0.19917  0.23292  1.0000
  O   O198      1.0  0.80083  0.65405  0.23292  1.0000
  O   O199      1.0  0.34595  0.80083  0.23292  1.0000
  O   O200      1.0  0.19917  0.34595  0.23292  1.0000
  O   O201      1.0  0.84595  0.69917  0.73292  1.0000
  O   O202      1.0  0.30083  0.84595  0.73292  1.0000
  O   O203      1.0  0.15405  0.30083  0.73292  1.0000
  O   O204      1.0  0.69917  0.15405  0.73292  1.0000
  O   O205      1.0  0.34595  0.80083  0.76708  1.0000
  O   O206      1.0  0.19917  0.34595  0.76708  1.0000
  O   O207      1.0  0.65405  0.19917  0.76708  1.0000
  O   O208      1.0  0.80083  0.65405  0.76708  1.0000
  O   O209      1.0  0.05317  0.14002  0.38670  1.0000
  O   O210      1.0  0.85998  0.05317  0.38670  1.0000
  O   O211      1.0  0.94683  0.85998  0.38670  1.0000
  O   O212      1.0  0.14002  0.94683  0.38670  1.0000
  O   O213      1.0  0.55317  0.35998  0.11330  1.0000
  O   O214      1.0  0.64002  0.55317  0.11330  1.0000
  O   O215      1.0  0.44683  0.64002  0.11330  1.0000
  O   O216      1.0  0.35998  0.44683  0.11330  1.0000
  O   O217      1.0  0.94683  0.85998  0.61330  1.0000
  O   O218      1.0  0.14002  0.94683  0.61330  1.0000
  O   O219      1.0  0.05317  0.14002  0.61330  1.0000
  O   O220      1.0  0.85998  0.05317  0.61330  1.0000
  O   O221      1.0  0.44683  0.64002  0.88670  1.0000
  O   O222      1.0  0.35998  0.44683  0.88670  1.0000
  O   O223      1.0  0.55317  0.35998  0.88670  1.0000
  O   O224      1.0  0.64002  0.55317  0.88670  1.0000
  H   H1        1.0  0.04380  0.15850  0.40310  1.0000
  H   H2        1.0  0.84150  0.04380  0.40310  1.0000
  H   H3        1.0  0.95620  0.84150  0.40310  1.0000
  H   H4        1.0  0.15850  0.95620  0.40310  1.0000
  H   H5        1.0  0.54380  0.34150  0.09690  1.0000
  H   H6        1.0  0.65850  0.54380  0.09690  1.0000
  H   H7        1.0  0.45620  0.65850  0.09690  1.0000
  H   H8        1.0  0.34150  0.45620  0.09690  1.0000
  H   H9        1.0  0.95620  0.84150  0.59690  1.0000
  H   H10       1.0  0.15850  0.95620  0.59690  1.0000
  H   H11       1.0  0.04380  0.15850  0.59690  1.0000
  H   H12       1.0  0.84150  0.04380  0.59690  1.0000
  H   H13       1.0  0.45620  0.65850  0.90310  1.0000
  H   H14       1.0  0.34150  0.45620  0.90310  1.0000
  H   H15       1.0  0.54380  0.34150  0.90310  1.0000
  H   H16       1.0  0.65850  0.54380  0.90310  1.0000
  H   H17       1.0  0.02760  0.12710  0.37760  1.0000
  H   H18       1.0  0.87290  0.02760  0.37760  1.0000
  H   H19       1.0  0.97240  0.87290  0.37760  1.0000
  H   H20       1.0  0.12710  0.97240  0.37760  1.0000
  H   H21       1.0  0.52760  0.37290  0.12240  1.0000
  H   H22       1.0  0.62710  0.52760  0.12240  1.0000
  H   H23       1.0  0.47240  0.62710  0.12240  1.0000
  H   H24       1.0  0.37290  0.47240  0.12240  1.0000
  H   H25       1.0  0.97240  0.87290  0.62240  1.0000
  H   H26       1.0  0.12710  0.97240  0.62240  1.0000
  H   H27       1.0  0.02760  0.12710  0.62240  1.0000
  H   H28       1.0  0.87290  0.02760  0.62240  1.0000
  H   H29       1.0  0.47240  0.62710  0.87760  1.0000
  H   H30       1.0  0.37290  0.47240  0.87760  1.0000
  H   H31       1.0  0.52760  0.37290  0.87760  1.0000
  H   H32       1.0  0.62710  0.52760  0.87760  1.0000
  O   O225      1.0  0.93750  0.19652  0.50000  1.0000
  O   O226      1.0  0.80348  0.93750  0.50000  1.0000
  O   O227      1.0  0.06250  0.80348  0.50000  1.0000
  O   O228      1.0  0.19652  0.06250  0.50000  1.0000
  O   O229      1.0  0.43750  0.30348  0.00000  1.0000
  O   O230      1.0  0.69652  0.43750  0.00000  1.0000
  O   O231      1.0  0.56250  0.69652  0.00000  1.0000
  O   O232      1.0  0.30348  0.56250  0.00000  1.0000
  H   H33       1.0  0.95390  0.19100  0.51810  1.0000
  H   H34       1.0  0.80900  0.95390  0.51810  1.0000
  H   H35       1.0  0.04610  0.80900  0.51810  1.0000
  H   H36       1.0  0.19100  0.04610  0.51810  1.0000
  H   H37       1.0  0.45390  0.30900  0.98190  1.0000
  H   H38       1.0  0.69100  0.45390  0.98190  1.0000
  H   H39       1.0  0.54610  0.69100  0.98190  1.0000
  H   H40       1.0  0.30900  0.54610  0.98190  1.0000
  H   H41       1.0  0.04610  0.80900  0.48190  1.0000
  H   H42       1.0  0.19100  0.04610  0.48190  1.0000
  H   H43       1.0  0.95390  0.19100  0.48190  1.0000
  H   H44       1.0  0.80900  0.95390  0.48190  1.0000
  H   H45       1.0  0.54610  0.69100  0.01810  1.0000
  H   H46       1.0  0.30900  0.54610  0.01810  1.0000
  H   H47       1.0  0.45390  0.30900  0.01810  1.0000
  H   H48       1.0  0.69100  0.45390  0.01810  1.0000
  O   O233      1.0  0.86080  0.44277  0.50000  1.0000
  O   O234      1.0  0.55723  0.86080  0.50000  1.0000
  O   O235      1.0  0.13920  0.55723  0.50000  1.0000
  O   O236      1.0  0.44277  0.13920  0.50000  1.0000
  O   O237      1.0  0.36080  0.05723  0.00000  1.0000
  O   O238      1.0  0.94277  0.36080  0.00000  1.0000
  O   O239      1.0  0.63920  0.94277  0.00000  1.0000
  O   O240      1.0  0.05723  0.63920  0.00000  1.0000
  H   H49       1.0  0.86710  0.45760  0.51860  1.0000
  H   H50       1.0  0.54240  0.86710  0.51860  1.0000
  H   H51       1.0  0.13290  0.54240  0.51860  1.0000
  H   H52       1.0  0.45760  0.13290  0.51860  1.0000
  H   H53       1.0  0.36710  0.04240  0.98140  1.0000
  H   H54       1.0  0.95760  0.36710  0.98140  1.0000
  H   H55       1.0  0.63290  0.95760  0.98140  1.0000
  H   H56       1.0  0.04240  0.63290  0.98140  1.0000
  H   H57       1.0  0.13290  0.54240  0.48140  1.0000
  H   H58       1.0  0.45760  0.13290  0.48140  1.0000
  H   H59       1.0  0.86710  0.45760  0.48140  1.0000
  H   H60       1.0  0.54240  0.86710  0.48140  1.0000
  H   H61       1.0  0.63290  0.95760  0.01860  1.0000
  H   H62       1.0  0.04240  0.63290  0.01860  1.0000
  H   H63       1.0  0.36710  0.04240  0.01860  1.0000
  H   H64       1.0  0.95760  0.36710  0.01860  1.0000
  N   N1        1.0  0.24022  0.13246  0.18195  1.0000
  N   N2        1.0  0.86754  0.24022  0.18195  1.0000
  N   N3        1.0  0.75978  0.86754  0.18195  1.0000
  N   N4        1.0  0.13246  0.75978  0.18195  1.0000
  N   N5        1.0  0.74022  0.36754  0.31805  1.0000
  N   N6        1.0  0.63246  0.74022  0.31805  1.0000
  N   N7        1.0  0.25978  0.63246  0.31805  1.0000
  N   N8        1.0  0.36754  0.25978  0.31805  1.0000
  N   N9        1.0  0.75978  0.86754  0.81805  1.0000
  N   N10       1.0  0.13246  0.75978  0.81805  1.0000
  N   N11       1.0  0.24022  0.13246  0.81805  1.0000
  N   N12       1.0  0.86754  0.24022  0.81805  1.0000
  N   N13       1.0  0.25978  0.63246  0.68195  1.0000
  N   N14       1.0  0.36754  0.25978  0.68195  1.0000
  N   N15       1.0  0.74022  0.36754  0.68195  1.0000
  N   N16       1.0  0.63246  0.74022  0.68195  1.0000
  H   H65       1.0  0.23380  0.15920  0.19300  1.0000
  H   H66       1.0  0.84080  0.23380  0.19300  1.0000
  H   H67       1.0  0.76620  0.84080  0.19300  1.0000
  H   H68       1.0  0.15920  0.76620  0.19300  1.0000
  H   H69       1.0  0.73380  0.34080  0.30700  1.0000
  H   H70       1.0  0.65920  0.73380  0.30700  1.0000
  H   H71       1.0  0.26620  0.65920  0.30700  1.0000
  H   H72       1.0  0.34080  0.26620  0.30700  1.0000
  H   H73       1.0  0.76620  0.84080  0.80700  1.0000
  H   H74       1.0  0.15920  0.76620  0.80700  1.0000
  H   H75       1.0  0.23380  0.15920  0.80700  1.0000
  H   H76       1.0  0.84080  0.23380  0.80700  1.0000
  H   H77       1.0  0.26620  0.65920  0.69300  1.0000
  H   H78       1.0  0.34080  0.26620  0.69300  1.0000
  H   H79       1.0  0.73380  0.34080  0.69300  1.0000
  H   H80       1.0  0.65920  0.73380  0.69300  1.0000
  N   N17       1.0  0.24760  0.05491  0.16841  1.0000
  N   N18       1.0  0.94509  0.24760  0.16841  1.0000
  N   N19       1.0  0.75240  0.94509  0.16841  1.0000
  N   N20       1.0  0.05491  0.75240  0.16841  1.0000
  N   N21       1.0  0.74760  0.44509  0.33159  1.0000
  N   N22       1.0  0.55491  0.74760  0.33159  1.0000
  N   N23       1.0  0.25240  0.55491  0.33159  1.0000
  N   N24       1.0  0.44509  0.25240  0.33159  1.0000
  N   N25       1.0  0.75240  0.94509  0.83159  1.0000
  N   N26       1.0  0.05491  0.75240  0.83159  1.0000
  N   N27       1.0  0.24760  0.05491  0.83159  1.0000
  N   N28       1.0  0.94509  0.24760  0.83159  1.0000
  N   N29       1.0  0.25240  0.55491  0.66841  1.0000
  N   N30       1.0  0.44509  0.25240  0.66841  1.0000
  N   N31       1.0  0.74760  0.44509  0.66841  1.0000
  N   N32       1.0  0.55491  0.74760  0.66841  1.0000
  N   N33       1.0  0.26370  0.08202  0.14134  1.0000
  N   N34       1.0  0.91798  0.26370  0.14134  1.0000
  N   N35       1.0  0.73630  0.91798  0.14134  1.0000
  N   N36       1.0  0.08202  0.73630  0.14134  1.0000
  N   N37       1.0  0.76370  0.41798  0.35866  1.0000
  N   N38       1.0  0.58202  0.76370  0.35866  1.0000
  N   N39       1.0  0.23630  0.58202  0.35866  1.0000
  N   N40       1.0  0.41798  0.23630  0.35866  1.0000
  N   N41       1.0  0.73630  0.91798  0.85866  1.0000
  N   N42       1.0  0.08202  0.73630  0.85866  1.0000
  N   N43       1.0  0.26370  0.08202  0.85866  1.0000
  N   N44       1.0  0.91798  0.26370  0.85866  1.0000
  N   N45       1.0  0.23630  0.58202  0.64134  1.0000
  N   N46       1.0  0.41798  0.23630  0.64134  1.0000
  N   N47       1.0  0.76370  0.41798  0.64134  1.0000
  N   N48       1.0  0.58202  0.76370  0.64134  1.0000
  N   N49       1.0  0.00000  0.50000  0.38541  1.0000
  N   N50       1.0  0.50000  0.00000  0.38541  1.0000
  N   N51       1.0  0.50000  0.00000  0.11459  1.0000
  N   N52       1.0  0.00000  0.50000  0.11459  1.0000
  N   N53       1.0  0.00000  0.50000  0.61459  1.0000
  N   N54       1.0  0.50000  0.00000  0.61459  1.0000
  N   N55       1.0  0.50000  0.00000  0.88541  1.0000
  N   N56       1.0  0.00000  0.50000  0.88541  1.0000
  H   H81       1.0  0.00000  0.50000  0.40730  1.0000
  H   H82       1.0  0.50000  0.00000  0.40730  1.0000
  H   H83       1.0  0.50000  0.00000  0.09270  1.0000
  H   H84       1.0  0.00000  0.50000  0.09270  1.0000
  H   H85       1.0  0.00000  0.50000  0.59270  1.0000
  H   H86       1.0  0.50000  0.00000  0.59270  1.0000
  H   H87       1.0  0.50000  0.00000  0.90730  1.0000
  H   H88       1.0  0.00000  0.50000  0.90730  1.0000
  N   N57       1.0  0.00410  0.47471  0.33285  1.0000
  N   N58       1.0  0.52529  0.00410  0.33285  1.0000
  N   N59       1.0  0.99590  0.52529  0.33285  1.0000
  N   N60       1.0  0.47471  0.99590  0.33285  1.0000
  N   N61       1.0  0.50410  0.02529  0.16715  1.0000
  N   N62       1.0  0.97471  0.50410  0.16715  1.0000
  N   N63       1.0  0.49590  0.97471  0.16715  1.0000
  N   N64       1.0  0.02529  0.49590  0.16715  1.0000
  N   N65       1.0  0.99590  0.52529  0.66715  1.0000
  N   N66       1.0  0.47471  0.99590  0.66715  1.0000
  N   N67       1.0  0.00410  0.47471  0.66715  1.0000
  N   N68       1.0  0.52529  0.00410  0.66715  1.0000
  N   N69       1.0  0.49590  0.97471  0.83285  1.0000
  N   N70       1.0  0.02529  0.49590  0.83285  1.0000
  N   N71       1.0  0.50410  0.02529  0.83285  1.0000
  N   N72       1.0  0.97471  0.50410  0.83285  1.0000
  C   C1        1.0  0.17200  0.10209  0.27623  1.0000
  C   C2        1.0  0.89791  0.17200  0.27623  1.0000
  C   C3        1.0  0.82800  0.89791  0.27623  1.0000
  C   C4        1.0  0.10209  0.82800  0.27623  1.0000
  C   C5        1.0  0.67200  0.39791  0.22377  1.0000
  C   C6        1.0  0.60209  0.67200  0.22377  1.0000
  C   C7        1.0  0.32800  0.60209  0.22377  1.0000
  C   C8        1.0  0.39791  0.32800  0.22377  1.0000
  C   C9        1.0  0.82800  0.89791  0.72377  1.0000
  C   C10       1.0  0.10209  0.82800  0.72377  1.0000
  C   C11       1.0  0.17200  0.10209  0.72377  1.0000
  C   C12       1.0  0.89791  0.17200  0.72377  1.0000
  C   C13       1.0  0.32800  0.60209  0.77623  1.0000
  C   C14       1.0  0.39791  0.32800  0.77623  1.0000
  C   C15       1.0  0.67200  0.39791  0.77623  1.0000
  C   C16       1.0  0.60209  0.67200  0.77623  1.0000
  C   C17       1.0  0.17558  0.05541  0.29058  1.0000
  C   C18       1.0  0.94459  0.17558  0.29058  1.0000
  C   C19       1.0  0.82442  0.94459  0.29058  1.0000
  C   C20       1.0  0.05541  0.82442  0.29058  1.0000
  C   C21       1.0  0.67558  0.44459  0.20942  1.0000
  C   C22       1.0  0.55541  0.67558  0.20942  1.0000
  C   C23       1.0  0.32442  0.55541  0.20942  1.0000
  C   C24       1.0  0.44459  0.32442  0.20942  1.0000
  C   C25       1.0  0.82442  0.94459  0.70942  1.0000
  C   C26       1.0  0.05541  0.82442  0.70942  1.0000
  C   C27       1.0  0.17558  0.05541  0.70942  1.0000
  C   C28       1.0  0.94459  0.17558  0.70942  1.0000
  C   C29       1.0  0.32442  0.55541  0.79058  1.0000
  C   C30       1.0  0.44459  0.32442  0.79058  1.0000
  C   C31       1.0  0.67558  0.44459  0.79058  1.0000
  C   C32       1.0  0.55541  0.67558  0.79058  1.0000
  H   H89       1.0  0.16150  0.04920  0.31180  1.0000
  H   H90       1.0  0.95080  0.16150  0.31180  1.0000
  H   H91       1.0  0.83850  0.95080  0.31180  1.0000
  H   H92       1.0  0.04920  0.83850  0.31180  1.0000
  H   H93       1.0  0.66150  0.45080  0.18820  1.0000
  H   H94       1.0  0.54920  0.66150  0.18820  1.0000
  H   H95       1.0  0.33850  0.54920  0.18820  1.0000
  H   H96       1.0  0.45080  0.33850  0.18820  1.0000
  H   H97       1.0  0.83850  0.95080  0.68820  1.0000
  H   H98       1.0  0.04920  0.83850  0.68820  1.0000
  H   H99       1.0  0.16150  0.04920  0.68820  1.0000
  H   H100      1.0  0.95080  0.16150  0.68820  1.0000
  H   H101      1.0  0.33850  0.54920  0.81180  1.0000
  H   H102      1.0  0.45080  0.33850  0.81180  1.0000
  H   H103      1.0  0.66150  0.45080  0.81180  1.0000
  H   H104      1.0  0.54920  0.66150  0.81180  1.0000
  C   C33       1.0  0.20049  0.01748  0.27314  1.0000
  C   C34       1.0  0.98252  0.20049  0.27314  1.0000
  C   C35       1.0  0.79951  0.98252  0.27314  1.0000
  C   C36       1.0  0.01748  0.79951  0.27314  1.0000
  C   C37       1.0  0.70049  0.48252  0.22686  1.0000
  C   C38       1.0  0.51748  0.70049  0.22686  1.0000
  C   C39       1.0  0.29951  0.51748  0.22686  1.0000
  C   C40       1.0  0.48252  0.29951  0.22686  1.0000
  C   C41       1.0  0.79951  0.98252  0.72686  1.0000
  C   C42       1.0  0.01748  0.79951  0.72686  1.0000
  C   C43       1.0  0.20049  0.01748  0.72686  1.0000
  C   C44       1.0  0.98252  0.20049  0.72686  1.0000
  C   C45       1.0  0.29951  0.51748  0.77314  1.0000
  C   C46       1.0  0.48252  0.29951  0.77314  1.0000
  C   C47       1.0  0.70049  0.48252  0.77314  1.0000
  C   C48       1.0  0.51748  0.70049  0.77314  1.0000
  C   C49       1.0  0.21537  0.07353  0.22646  1.0000
  C   C50       1.0  0.92647  0.21537  0.22646  1.0000
  C   C51       1.0  0.78463  0.92647  0.22646  1.0000
  C   C52       1.0  0.07353  0.78463  0.22646  1.0000
  C   C53       1.0  0.71537  0.42647  0.27354  1.0000
  C   C54       1.0  0.57353  0.71537  0.27354  1.0000
  C   C55       1.0  0.28463  0.57353  0.27354  1.0000
  C   C56       1.0  0.42647  0.28463  0.27354  1.0000
  C   C57       1.0  0.78463  0.92647  0.77354  1.0000
  C   C58       1.0  0.07353  0.78463  0.77354  1.0000
  C   C59       1.0  0.21537  0.07353  0.77354  1.0000
  C   C60       1.0  0.92647  0.21537  0.77354  1.0000
  C   C61       1.0  0.28463  0.57353  0.72646  1.0000
  C   C62       1.0  0.42647  0.28463  0.72646  1.0000
  C   C63       1.0  0.71537  0.42647  0.72646  1.0000
  C   C64       1.0  0.57353  0.71537  0.72646  1.0000
  C   C65       1.0  0.19232  0.11043  0.24435  1.0000
  C   C66       1.0  0.88957  0.19232  0.24435  1.0000
  C   C67       1.0  0.80768  0.88957  0.24435  1.0000
  C   C68       1.0  0.11043  0.80768  0.24435  1.0000
  C   C69       1.0  0.69232  0.38957  0.25565  1.0000
  C   C70       1.0  0.61043  0.69232  0.25565  1.0000
  C   C71       1.0  0.30768  0.61043  0.25565  1.0000
  C   C72       1.0  0.38957  0.30768  0.25565  1.0000
  C   C73       1.0  0.80768  0.88957  0.75565  1.0000
  C   C74       1.0  0.11043  0.80768  0.75565  1.0000
  C   C75       1.0  0.19232  0.11043  0.75565  1.0000
  C   C76       1.0  0.88957  0.19232  0.75565  1.0000
  C   C77       1.0  0.30768  0.61043  0.74435  1.0000
  C   C78       1.0  0.38957  0.30768  0.74435  1.0000
  C   C79       1.0  0.69232  0.38957  0.74435  1.0000
  C   C80       1.0  0.61043  0.69232  0.74435  1.0000
  H   H105      1.0  0.19030  0.14190  0.23480  1.0000
  H   H106      1.0  0.85810  0.19030  0.23480  1.0000
  H   H107      1.0  0.80970  0.85810  0.23480  1.0000
  H   H108      1.0  0.14190  0.80970  0.23480  1.0000
  H   H109      1.0  0.69030  0.35810  0.26520  1.0000
  H   H110      1.0  0.64190  0.69030  0.26520  1.0000
  H   H111      1.0  0.30970  0.64190  0.26520  1.0000
  H   H112      1.0  0.35810  0.30970  0.26520  1.0000
  H   H113      1.0  0.80970  0.85810  0.76520  1.0000
  H   H114      1.0  0.14190  0.80970  0.76520  1.0000
  H   H115      1.0  0.19030  0.14190  0.76520  1.0000
  H   H116      1.0  0.85810  0.19030  0.76520  1.0000
  H   H117      1.0  0.30970  0.64190  0.73480  1.0000
  H   H118      1.0  0.35810  0.30970  0.73480  1.0000
  H   H119      1.0  0.69030  0.35810  0.73480  1.0000
  H   H120      1.0  0.64190  0.69030  0.73480  1.0000
  C   C81       1.0  0.22013  0.02635  0.24136  1.0000
  C   C82       1.0  0.97365  0.22013  0.24136  1.0000
  C   C83       1.0  0.77987  0.97365  0.24136  1.0000
  C   C84       1.0  0.02635  0.77987  0.24136  1.0000
  C   C85       1.0  0.72013  0.47365  0.25864  1.0000
  C   C86       1.0  0.52635  0.72013  0.25864  1.0000
  C   C87       1.0  0.27987  0.52635  0.25864  1.0000
  C   C88       1.0  0.47365  0.27987  0.25864  1.0000
  C   C89       1.0  0.77987  0.97365  0.75864  1.0000
  C   C90       1.0  0.02635  0.77987  0.75864  1.0000
  C   C91       1.0  0.22013  0.02635  0.75864  1.0000
  C   C92       1.0  0.97365  0.22013  0.75864  1.0000
  C   C93       1.0  0.27987  0.52635  0.74136  1.0000
  C   C94       1.0  0.47365  0.27987  0.74136  1.0000
  C   C95       1.0  0.72013  0.47365  0.74136  1.0000
  C   C96       1.0  0.52635  0.72013  0.74136  1.0000
  H   H121      1.0  0.23650  0.00120  0.22970  1.0000
  H   H122      1.0  0.99880  0.23650  0.22970  1.0000
  H   H123      1.0  0.76350  0.99880  0.22970  1.0000
  H   H124      1.0  0.00120  0.76350  0.22970  1.0000
  H   H125      1.0  0.73650  0.49880  0.27030  1.0000
  H   H126      1.0  0.50120  0.73650  0.27030  1.0000
  H   H127      1.0  0.26350  0.50120  0.27030  1.0000
  H   H128      1.0  0.49880  0.26350  0.27030  1.0000
  H   H129      1.0  0.76350  0.99880  0.77030  1.0000
  H   H130      1.0  0.00120  0.76350  0.77030  1.0000
  H   H131      1.0  0.23650  0.00120  0.77030  1.0000
  H   H132      1.0  0.99880  0.23650  0.77030  1.0000
  H   H133      1.0  0.26350  0.50120  0.72970  1.0000
  H   H134      1.0  0.49880  0.26350  0.72970  1.0000
  H   H135      1.0  0.73650  0.49880  0.72970  1.0000
  H   H136      1.0  0.50120  0.73650  0.72970  1.0000
  C   C97       1.0  0.23400  0.08637  0.19265  1.0000
  C   C98       1.0  0.91363  0.23400  0.19265  1.0000
  C   C99       1.0  0.76600  0.91363  0.19265  1.0000
  C   C100      1.0  0.08637  0.76600  0.19265  1.0000
  C   C101      1.0  0.73400  0.41363  0.30735  1.0000
  C   C102      1.0  0.58637  0.73400  0.30735  1.0000
  C   C103      1.0  0.26600  0.58637  0.30735  1.0000
  C   C104      1.0  0.41363  0.26600  0.30735  1.0000
  C   C105      1.0  0.76600  0.91363  0.80735  1.0000
  C   C106      1.0  0.08637  0.76600  0.80735  1.0000
  C   C107      1.0  0.23400  0.08637  0.80735  1.0000
  C   C108      1.0  0.91363  0.23400  0.80735  1.0000
  C   C109      1.0  0.26600  0.58637  0.69265  1.0000
  C   C110      1.0  0.41363  0.26600  0.69265  1.0000
  C   C111      1.0  0.73400  0.41363  0.69265  1.0000
  C   C112      1.0  0.58637  0.73400  0.69265  1.0000
  C   C113      1.0  0.25830  0.12907  0.15075  1.0000
  C   C114      1.0  0.87093  0.25830  0.15075  1.0000
  C   C115      1.0  0.74170  0.87093  0.15075  1.0000
  C   C116      1.0  0.12907  0.74170  0.15075  1.0000
  C   C117      1.0  0.75830  0.37093  0.34925  1.0000
  C   C118      1.0  0.62907  0.75830  0.34925  1.0000
  C   C119      1.0  0.24170  0.62907  0.34925  1.0000
  C   C120      1.0  0.37093  0.24170  0.34925  1.0000
  C   C121      1.0  0.74170  0.87093  0.84925  1.0000
  C   C122      1.0  0.12907  0.74170  0.84925  1.0000
  C   C123      1.0  0.25830  0.12907  0.84925  1.0000
  C   C124      1.0  0.87093  0.25830  0.84925  1.0000
  C   C125      1.0  0.24170  0.62907  0.65075  1.0000
  C   C126      1.0  0.37093  0.24170  0.65075  1.0000
  C   C127      1.0  0.75830  0.37093  0.65075  1.0000
  C   C128      1.0  0.62907  0.75830  0.65075  1.0000
  C   C129      1.0  0.31181  0.20639  0.07987  1.0000
  C   C130      1.0  0.79361  0.31181  0.07987  1.0000
  C   C131      1.0  0.68819  0.79361  0.07987  1.0000
  C   C132      1.0  0.20639  0.68819  0.07987  1.0000
  C   C133      1.0  0.81181  0.29361  0.42013  1.0000
  C   C134      1.0  0.70639  0.81181  0.42013  1.0000
  C   C135      1.0  0.18819  0.70639  0.42013  1.0000
  C   C136      1.0  0.29361  0.18819  0.42013  1.0000
  C   C137      1.0  0.68819  0.79361  0.92013  1.0000
  C   C138      1.0  0.20639  0.68819  0.92013  1.0000
  C   C139      1.0  0.31181  0.20639  0.92013  1.0000
  C   C140      1.0  0.79361  0.31181  0.92013  1.0000
  C   C141      1.0  0.18819  0.70639  0.57987  1.0000
  C   C142      1.0  0.29361  0.18819  0.57987  1.0000
  C   C143      1.0  0.81181  0.29361  0.57987  1.0000
  C   C144      1.0  0.70639  0.81181  0.57987  1.0000
  C   C145      1.0  0.30659  0.25359  0.09344  1.0000
  C   C146      1.0  0.74641  0.30659  0.09344  1.0000
  C   C147      1.0  0.69341  0.74641  0.09344  1.0000
  C   C148      1.0  0.25359  0.69341  0.09344  1.0000
  C   C149      1.0  0.80659  0.24641  0.40656  1.0000
  C   C150      1.0  0.75359  0.80659  0.40656  1.0000
  C   C151      1.0  0.19341  0.75359  0.40656  1.0000
  C   C152      1.0  0.24641  0.19341  0.40656  1.0000
  C   C153      1.0  0.69341  0.74641  0.90656  1.0000
  C   C154      1.0  0.25359  0.69341  0.90656  1.0000
  C   C155      1.0  0.30659  0.25359  0.90656  1.0000
  C   C156      1.0  0.74641  0.30659  0.90656  1.0000
  C   C157      1.0  0.19341  0.75359  0.59344  1.0000
  C   C158      1.0  0.24641  0.19341  0.59344  1.0000
  C   C159      1.0  0.80659  0.24641  0.59344  1.0000
  C   C160      1.0  0.75359  0.80659  0.59344  1.0000
  H   H137      1.0  0.31860  0.28090  0.08150  1.0000
  H   H138      1.0  0.71910  0.31860  0.08150  1.0000
  H   H139      1.0  0.68140  0.71910  0.08150  1.0000
  H   H140      1.0  0.28090  0.68140  0.08150  1.0000
  H   H141      1.0  0.81860  0.21910  0.41850  1.0000
  H   H142      1.0  0.78090  0.81860  0.41850  1.0000
  H   H143      1.0  0.18140  0.78090  0.41850  1.0000
  H   H144      1.0  0.21910  0.18140  0.41850  1.0000
  H   H145      1.0  0.68140  0.71910  0.91850  1.0000
  H   H146      1.0  0.28090  0.68140  0.91850  1.0000
  H   H147      1.0  0.31860  0.28090  0.91850  1.0000
  H   H148      1.0  0.71910  0.31860  0.91850  1.0000
  H   H149      1.0  0.18140  0.78090  0.58150  1.0000
  H   H150      1.0  0.21910  0.18140  0.58150  1.0000
  H   H151      1.0  0.81860  0.21910  0.58150  1.0000
  H   H152      1.0  0.78090  0.81860  0.58150  1.0000
  C   C161      1.0  0.28330  0.26018  0.12500  1.0000
  C   C162      1.0  0.73982  0.28330  0.12500  1.0000
  C   C163      1.0  0.71670  0.73982  0.12500  1.0000
  C   C164      1.0  0.26018  0.71670  0.12500  1.0000
  C   C165      1.0  0.78330  0.23982  0.37500  1.0000
  C   C166      1.0  0.76018  0.78330  0.37500  1.0000
  C   C167      1.0  0.21670  0.76018  0.37500  1.0000
  C   C168      1.0  0.23982  0.21670  0.37500  1.0000
  C   C169      1.0  0.71670  0.73982  0.87500  1.0000
  C   C170      1.0  0.26018  0.71670  0.87500  1.0000
  C   C171      1.0  0.28330  0.26018  0.87500  1.0000
  C   C172      1.0  0.73982  0.28330  0.87500  1.0000
  C   C173      1.0  0.21670  0.76018  0.62500  1.0000
  C   C174      1.0  0.23982  0.21670  0.62500  1.0000
  C   C175      1.0  0.78330  0.23982  0.62500  1.0000
  C   C176      1.0  0.76018  0.78330  0.62500  1.0000
  C   C177      1.0  0.26675  0.21878  0.14286  1.0000
  C   C178      1.0  0.78122  0.26675  0.14286  1.0000
  C   C179      1.0  0.73325  0.78122  0.14286  1.0000
  C   C180      1.0  0.21878  0.73325  0.14286  1.0000
  C   C181      1.0  0.76675  0.28122  0.35714  1.0000
  C   C182      1.0  0.71878  0.76675  0.35714  1.0000
  C   C183      1.0  0.23325  0.71878  0.35714  1.0000
  C   C184      1.0  0.28122  0.23325  0.35714  1.0000
  C   C185      1.0  0.73325  0.78122  0.85714  1.0000
  C   C186      1.0  0.21878  0.73325  0.85714  1.0000
  C   C187      1.0  0.26675  0.21878  0.85714  1.0000
  C   C188      1.0  0.78122  0.26675  0.85714  1.0000
  C   C189      1.0  0.23325  0.71878  0.64286  1.0000
  C   C190      1.0  0.28122  0.23325  0.64286  1.0000
  C   C191      1.0  0.76675  0.28122  0.64286  1.0000
  C   C192      1.0  0.71878  0.76675  0.64286  1.0000
  H   H153      1.0  0.25130  0.22310  0.16390  1.0000
  H   H154      1.0  0.77690  0.25130  0.16390  1.0000
  H   H155      1.0  0.74870  0.77690  0.16390  1.0000
  H   H156      1.0  0.22310  0.74870  0.16390  1.0000
  H   H157      1.0  0.75130  0.27690  0.33610  1.0000
  H   H158      1.0  0.72310  0.75130  0.33610  1.0000
  H   H159      1.0  0.24870  0.72310  0.33610  1.0000
  H   H160      1.0  0.27690  0.24870  0.33610  1.0000
  H   H161      1.0  0.74870  0.77690  0.83610  1.0000
  H   H162      1.0  0.22310  0.74870  0.83610  1.0000
  H   H163      1.0  0.25130  0.22310  0.83610  1.0000
  H   H164      1.0  0.77690  0.25130  0.83610  1.0000
  H   H165      1.0  0.24870  0.72310  0.66390  1.0000
  H   H166      1.0  0.27690  0.24870  0.66390  1.0000
  H   H167      1.0  0.75130  0.27690  0.66390  1.0000
  H   H168      1.0  0.72310  0.75130  0.66390  1.0000
  C   C193      1.0  0.27282  0.17157  0.13008  1.0000
  C   C194      1.0  0.82843  0.27282  0.13008  1.0000
  C   C195      1.0  0.72718  0.82843  0.13008  1.0000
  C   C196      1.0  0.17157  0.72718  0.13008  1.0000
  C   C197      1.0  0.77282  0.32843  0.36992  1.0000
  C   C198      1.0  0.67157  0.77282  0.36992  1.0000
  C   C199      1.0  0.22718  0.67157  0.36992  1.0000
  C   C200      1.0  0.32843  0.22718  0.36992  1.0000
  C   C201      1.0  0.72718  0.82843  0.86992  1.0000
  C   C202      1.0  0.17157  0.72718  0.86992  1.0000
  C   C203      1.0  0.27282  0.17157  0.86992  1.0000
  C   C204      1.0  0.82843  0.27282  0.86992  1.0000
  C   C205      1.0  0.22718  0.67157  0.63008  1.0000
  C   C206      1.0  0.32843  0.22718  0.63008  1.0000
  C   C207      1.0  0.77282  0.32843  0.63008  1.0000
  C   C208      1.0  0.67157  0.77282  0.63008  1.0000
  C   C209      1.0  0.29476  0.16513  0.09807  1.0000
  C   C210      1.0  0.83487  0.29476  0.09807  1.0000
  C   C211      1.0  0.70524  0.83487  0.09807  1.0000
  C   C212      1.0  0.16513  0.70524  0.09807  1.0000
  C   C213      1.0  0.79476  0.33487  0.40193  1.0000
  C   C214      1.0  0.66513  0.79476  0.40193  1.0000
  C   C215      1.0  0.20524  0.66513  0.40193  1.0000
  C   C216      1.0  0.33487  0.20524  0.40193  1.0000
  C   C217      1.0  0.70524  0.83487  0.90193  1.0000
  C   C218      1.0  0.16513  0.70524  0.90193  1.0000
  C   C219      1.0  0.29476  0.16513  0.90193  1.0000
  C   C220      1.0  0.83487  0.29476  0.90193  1.0000
  C   C221      1.0  0.20524  0.66513  0.59807  1.0000
  C   C222      1.0  0.33487  0.20524  0.59807  1.0000
  C   C223      1.0  0.79476  0.33487  0.59807  1.0000
  C   C224      1.0  0.66513  0.79476  0.59807  1.0000
  H   H169      1.0  0.29800  0.13350  0.08890  1.0000
  H   H170      1.0  0.86650  0.29800  0.08890  1.0000
  H   H171      1.0  0.70200  0.86650  0.08890  1.0000
  H   H172      1.0  0.13350  0.70200  0.08890  1.0000
  H   H173      1.0  0.79800  0.36650  0.41110  1.0000
  H   H174      1.0  0.63350  0.79800  0.41110  1.0000
  H   H175      1.0  0.20200  0.63350  0.41110  1.0000
  H   H176      1.0  0.36650  0.20200  0.41110  1.0000
  H   H177      1.0  0.70200  0.86650  0.91110  1.0000
  H   H178      1.0  0.13350  0.70200  0.91110  1.0000
  H   H179      1.0  0.29800  0.13350  0.91110  1.0000
  H   H180      1.0  0.86650  0.29800  0.91110  1.0000
  H   H181      1.0  0.20200  0.63350  0.58890  1.0000
  H   H182      1.0  0.36650  0.20200  0.58890  1.0000
  H   H183      1.0  0.79800  0.36650  0.58890  1.0000
  H   H184      1.0  0.63350  0.79800  0.58890  1.0000
  C   C225      1.0  0.14714  0.14310  0.29538  1.0000
  C   C226      1.0  0.85690  0.14714  0.29538  1.0000
  C   C227      1.0  0.85286  0.85690  0.29538  1.0000
  C   C228      1.0  0.14310  0.85286  0.29538  1.0000
  C   C229      1.0  0.64714  0.35690  0.20462  1.0000
  C   C230      1.0  0.64310  0.64714  0.20462  1.0000
  C   C231      1.0  0.35286  0.64310  0.20462  1.0000
  C   C232      1.0  0.35690  0.35286  0.20462  1.0000
  C   C233      1.0  0.85286  0.85690  0.70462  1.0000
  C   C234      1.0  0.14310  0.85286  0.70462  1.0000
  C   C235      1.0  0.14714  0.14310  0.70462  1.0000
  C   C236      1.0  0.85690  0.14714  0.70462  1.0000
  C   C237      1.0  0.35286  0.64310  0.79538  1.0000
  C   C238      1.0  0.35690  0.35286  0.79538  1.0000
  C   C239      1.0  0.64714  0.35690  0.79538  1.0000
  C   C240      1.0  0.64310  0.64714  0.79538  1.0000
  C   C241      1.0  0.20709  0.96831  0.29096  1.0000
  C   C242      1.0  0.03169  0.20709  0.29096  1.0000
  C   C243      1.0  0.79291  0.03169  0.29096  1.0000
  C   C244      1.0  0.96831  0.79291  0.29096  1.0000
  C   C245      1.0  0.70709  0.53169  0.20904  1.0000
  C   C246      1.0  0.46831  0.70709  0.20904  1.0000
  C   C247      1.0  0.29291  0.46831  0.20904  1.0000
  C   C248      1.0  0.53169  0.29291  0.20904  1.0000
  C   C249      1.0  0.79291  0.03169  0.70904  1.0000
  C   C250      1.0  0.96831  0.79291  0.70904  1.0000
  C   C251      1.0  0.20709  0.96831  0.70904  1.0000
  C   C252      1.0  0.03169  0.20709  0.70904  1.0000
  C   C253      1.0  0.29291  0.46831  0.79096  1.0000
  C   C254      1.0  0.53169  0.29291  0.79096  1.0000
  C   C255      1.0  0.70709  0.53169  0.79096  1.0000
  C   C256      1.0  0.46831  0.70709  0.79096  1.0000
  C   C257      1.0  0.34058  0.19794  0.04762  1.0000
  C   C258      1.0  0.80206  0.34058  0.04762  1.0000
  C   C259      1.0  0.65942  0.80206  0.04762  1.0000
  C   C260      1.0  0.19794  0.65942  0.04762  1.0000
  C   C261      1.0  0.84058  0.30206  0.45238  1.0000
  C   C262      1.0  0.69794  0.84058  0.45238  1.0000
  C   C263      1.0  0.15942  0.69794  0.45238  1.0000
  C   C264      1.0  0.30206  0.15942  0.45238  1.0000
  C   C265      1.0  0.65942  0.80206  0.95238  1.0000
  C   C266      1.0  0.19794  0.65942  0.95238  1.0000
  C   C267      1.0  0.34058  0.19794  0.95238  1.0000
  C   C268      1.0  0.80206  0.34058  0.95238  1.0000
  C   C269      1.0  0.15942  0.69794  0.54762  1.0000
  C   C270      1.0  0.30206  0.15942  0.54762  1.0000
  C   C271      1.0  0.84058  0.30206  0.54762  1.0000
  C   C272      1.0  0.69794  0.84058  0.54762  1.0000
  C   C273      1.0  0.28031  0.31039  0.14096  1.0000
  C   C274      1.0  0.68961  0.28031  0.14096  1.0000
  C   C275      1.0  0.71969  0.68961  0.14096  1.0000
  C   C276      1.0  0.31039  0.71969  0.14096  1.0000
  C   C277      1.0  0.78031  0.18961  0.35904  1.0000
  C   C278      1.0  0.81039  0.78031  0.35904  1.0000
  C   C279      1.0  0.21969  0.81039  0.35904  1.0000
  C   C280      1.0  0.18961  0.21969  0.35904  1.0000
  C   C281      1.0  0.71969  0.68961  0.85904  1.0000
  C   C282      1.0  0.31039  0.71969  0.85904  1.0000
  C   C283      1.0  0.28031  0.31039  0.85904  1.0000
  C   C284      1.0  0.68961  0.28031  0.85904  1.0000
  C   C285      1.0  0.21969  0.81039  0.64096  1.0000
  C   C286      1.0  0.18961  0.21969  0.64096  1.0000
  C   C287      1.0  0.78031  0.18961  0.64096  1.0000
  C   C288      1.0  0.81039  0.78031  0.64096  1.0000
  C   C289      1.0  0.04130  0.32673  0.37456  1.0000
  C   C290      1.0  0.67327  0.04130  0.37456  1.0000
  C   C291      1.0  0.95870  0.67327  0.37456  1.0000
  C   C292      1.0  0.32673  0.95870  0.37456  1.0000
  C   C293      1.0  0.54130  0.17327  0.12544  1.0000
  C   C294      1.0  0.82673  0.54130  0.12544  1.0000
  C   C295      1.0  0.45870  0.82673  0.12544  1.0000
  C   C296      1.0  0.17327  0.45870  0.12544  1.0000
  C   C297      1.0  0.95870  0.67327  0.62544  1.0000
  C   C298      1.0  0.32673  0.95870  0.62544  1.0000
  C   C299      1.0  0.04130  0.32673  0.62544  1.0000
  C   C300      1.0  0.67327  0.04130  0.62544  1.0000
  C   C301      1.0  0.45870  0.82673  0.87456  1.0000
  C   C302      1.0  0.17327  0.45870  0.87456  1.0000
  C   C303      1.0  0.54130  0.17327  0.87456  1.0000
  C   C304      1.0  0.82673  0.54130  0.87456  1.0000
  C   C305      1.0  0.01666  0.31556  0.40464  1.0000
  C   C306      1.0  0.68444  0.01666  0.40464  1.0000
  C   C307      1.0  0.98334  0.68444  0.40464  1.0000
  C   C308      1.0  0.31556  0.98334  0.40464  1.0000
  C   C309      1.0  0.51666  0.18444  0.09536  1.0000
  C   C310      1.0  0.81556  0.51666  0.09536  1.0000
  C   C311      1.0  0.48334  0.81556  0.09536  1.0000
  C   C312      1.0  0.18444  0.48334  0.09536  1.0000
  C   C313      1.0  0.98334  0.68444  0.59536  1.0000
  C   C314      1.0  0.31556  0.98334  0.59536  1.0000
  C   C315      1.0  0.01666  0.31556  0.59536  1.0000
  C   C316      1.0  0.68444  0.01666  0.59536  1.0000
  C   C317      1.0  0.48334  0.81556  0.90464  1.0000
  C   C318      1.0  0.18444  0.48334  0.90464  1.0000
  C   C319      1.0  0.51666  0.18444  0.90464  1.0000
  C   C320      1.0  0.81556  0.51666  0.90464  1.0000
  H   H185      1.0  0.01860  0.28370  0.41360  1.0000
  H   H186      1.0  0.71630  0.01860  0.41360  1.0000
  H   H187      1.0  0.98140  0.71630  0.41360  1.0000
  H   H188      1.0  0.28370  0.98140  0.41360  1.0000
  H   H189      1.0  0.51860  0.21630  0.08640  1.0000
  H   H190      1.0  0.78370  0.51860  0.08640  1.0000
  H   H191      1.0  0.48140  0.78370  0.08640  1.0000
  H   H192      1.0  0.21630  0.48140  0.08640  1.0000
  H   H193      1.0  0.98140  0.71630  0.58640  1.0000
  H   H194      1.0  0.28370  0.98140  0.58640  1.0000
  H   H195      1.0  0.01860  0.28370  0.58640  1.0000
  H   H196      1.0  0.71630  0.01860  0.58640  1.0000
  H   H197      1.0  0.48140  0.78370  0.91360  1.0000
  H   H198      1.0  0.21630  0.48140  0.91360  1.0000
  H   H199      1.0  0.51860  0.21630  0.91360  1.0000
  H   H200      1.0  0.78370  0.51860  0.91360  1.0000
  C   C321      1.0  0.98891  0.35167  0.42174  1.0000
  C   C322      1.0  0.64833  0.98891  0.42174  1.0000
  C   C323      1.0  0.01109  0.64833  0.42174  1.0000
  C   C324      1.0  0.35167  0.01109  0.42174  1.0000
  C   C325      1.0  0.48891  0.14833  0.07826  1.0000
  C   C326      1.0  0.85167  0.48891  0.07826  1.0000
  C   C327      1.0  0.51109  0.85167  0.07826  1.0000
  C   C328      1.0  0.14833  0.51109  0.07826  1.0000
  C   C329      1.0  0.01109  0.64833  0.57826  1.0000
  C   C330      1.0  0.35167  0.01109  0.57826  1.0000
  C   C331      1.0  0.98891  0.35167  0.57826  1.0000
  C   C332      1.0  0.64833  0.98891  0.57826  1.0000
  C   C333      1.0  0.51109  0.85167  0.92174  1.0000
  C   C334      1.0  0.14833  0.51109  0.92174  1.0000
  C   C335      1.0  0.48891  0.14833  0.92174  1.0000
  C   C336      1.0  0.85167  0.48891  0.92174  1.0000
  C   C337      1.0  0.98710  0.39920  0.40812  1.0000
  C   C338      1.0  0.60080  0.98710  0.40812  1.0000
  C   C339      1.0  0.01290  0.60080  0.40812  1.0000
  C   C340      1.0  0.39920  0.01290  0.40812  1.0000
  C   C341      1.0  0.48710  0.10080  0.09188  1.0000
  C   C342      1.0  0.89920  0.48710  0.09188  1.0000
  C   C343      1.0  0.51290  0.89920  0.09188  1.0000
  C   C344      1.0  0.10080  0.51290  0.09188  1.0000
  C   C345      1.0  0.01290  0.60080  0.59188  1.0000
  C   C346      1.0  0.39920  0.01290  0.59188  1.0000
  C   C347      1.0  0.98710  0.39920  0.59188  1.0000
  C   C348      1.0  0.60080  0.98710  0.59188  1.0000
  C   C349      1.0  0.51290  0.89920  0.90812  1.0000
  C   C350      1.0  0.10080  0.51290  0.90812  1.0000
  C   C351      1.0  0.48710  0.10080  0.90812  1.0000
  C   C352      1.0  0.89920  0.48710  0.90812  1.0000
  H   H201      1.0  0.96980  0.42400  0.41960  1.0000
  H   H202      1.0  0.57600  0.96980  0.41960  1.0000
  H   H203      1.0  0.03020  0.57600  0.41960  1.0000
  H   H204      1.0  0.42400  0.03020  0.41960  1.0000
  H   H205      1.0  0.46980  0.07600  0.08040  1.0000
  H   H206      1.0  0.92400  0.46980  0.08040  1.0000
  H   H207      1.0  0.53020  0.92400  0.08040  1.0000
  H   H208      1.0  0.07600  0.53020  0.08040  1.0000
  H   H209      1.0  0.03020  0.57600  0.58040  1.0000
  H   H210      1.0  0.42400  0.03020  0.58040  1.0000
  H   H211      1.0  0.96980  0.42400  0.58040  1.0000
  H   H212      1.0  0.57600  0.96980  0.58040  1.0000
  H   H213      1.0  0.53020  0.92400  0.91960  1.0000
  H   H214      1.0  0.07600  0.53020  0.91960  1.0000
  H   H215      1.0  0.46980  0.07600  0.91960  1.0000
  H   H216      1.0  0.92400  0.46980  0.91960  1.0000
  C   C353      1.0  0.01052  0.41000  0.37789  1.0000
  C   C354      1.0  0.59000  0.01052  0.37789  1.0000
  C   C355      1.0  0.98948  0.59000  0.37789  1.0000
  C   C356      1.0  0.41000  0.98948  0.37789  1.0000
  C   C357      1.0  0.51052  0.09000  0.12211  1.0000
  C   C358      1.0  0.91000  0.51052  0.12211  1.0000
  C   C359      1.0  0.48948  0.91000  0.12211  1.0000
  C   C360      1.0  0.09000  0.48948  0.12211  1.0000
  C   C361      1.0  0.98948  0.59000  0.62211  1.0000
  C   C362      1.0  0.41000  0.98948  0.62211  1.0000
  C   C363      1.0  0.01052  0.41000  0.62211  1.0000
  C   C364      1.0  0.59000  0.01052  0.62211  1.0000
  C   C365      1.0  0.48948  0.91000  0.87789  1.0000
  C   C366      1.0  0.09000  0.48948  0.87789  1.0000
  C   C367      1.0  0.51052  0.09000  0.87789  1.0000
  C   C368      1.0  0.91000  0.51052  0.87789  1.0000
  C   C369      1.0  0.03807  0.37447  0.36088  1.0000
  C   C370      1.0  0.62553  0.03807  0.36088  1.0000
  C   C371      1.0  0.96193  0.62553  0.36088  1.0000
  C   C372      1.0  0.37447  0.96193  0.36088  1.0000
  C   C373      1.0  0.53807  0.12553  0.13912  1.0000
  C   C374      1.0  0.87447  0.53807  0.13912  1.0000
  C   C375      1.0  0.46193  0.87447  0.13912  1.0000
  C   C376      1.0  0.12553  0.46193  0.13912  1.0000
  C   C377      1.0  0.96193  0.62553  0.63912  1.0000
  C   C378      1.0  0.37447  0.96193  0.63912  1.0000
  C   C379      1.0  0.03807  0.37447  0.63912  1.0000
  C   C380      1.0  0.62553  0.03807  0.63912  1.0000
  C   C381      1.0  0.46193  0.87447  0.86088  1.0000
  C   C382      1.0  0.12553  0.46193  0.86088  1.0000
  C   C383      1.0  0.53807  0.12553  0.86088  1.0000
  C   C384      1.0  0.87447  0.53807  0.86088  1.0000
  H   H217      1.0  0.05420  0.38230  0.34060  1.0000
  H   H218      1.0  0.61770  0.05420  0.34060  1.0000
  H   H219      1.0  0.94580  0.61770  0.34060  1.0000
  H   H220      1.0  0.38230  0.94580  0.34060  1.0000
  H   H221      1.0  0.55420  0.11770  0.15940  1.0000
  H   H222      1.0  0.88230  0.55420  0.15940  1.0000
  H   H223      1.0  0.44580  0.88230  0.15940  1.0000
  H   H224      1.0  0.11770  0.44580  0.15940  1.0000
  H   H225      1.0  0.94580  0.61770  0.65940  1.0000
  H   H226      1.0  0.38230  0.94580  0.65940  1.0000
  H   H227      1.0  0.05420  0.38230  0.65940  1.0000
  H   H228      1.0  0.61770  0.05420  0.65940  1.0000
  H   H229      1.0  0.44580  0.88230  0.84060  1.0000
  H   H230      1.0  0.11770  0.44580  0.84060  1.0000
  H   H231      1.0  0.55420  0.11770  0.84060  1.0000
  H   H232      1.0  0.88230  0.55420  0.84060  1.0000
  C   C385      1.0  0.00581  0.46130  0.36492  1.0000
  C   C386      1.0  0.53870  0.00581  0.36492  1.0000
  C   C387      1.0  0.99419  0.53870  0.36492  1.0000
  C   C388      1.0  0.46130  0.99419  0.36492  1.0000
  C   C389      1.0  0.50581  0.03870  0.13508  1.0000
  C   C390      1.0  0.96130  0.50581  0.13508  1.0000
  C   C391      1.0  0.49419  0.96130  0.13508  1.0000
  C   C392      1.0  0.03870  0.49419  0.13508  1.0000
  C   C393      1.0  0.99419  0.53870  0.63508  1.0000
  C   C394      1.0  0.46130  0.99419  0.63508  1.0000
  C   C395      1.0  0.00581  0.46130  0.63508  1.0000
  C   C396      1.0  0.53870  0.00581  0.63508  1.0000
  C   C397      1.0  0.49419  0.96130  0.86492  1.0000
  C   C398      1.0  0.03870  0.49419  0.86492  1.0000
  C   C399      1.0  0.50581  0.03870  0.86492  1.0000
  C   C400      1.0  0.96130  0.50581  0.86492  1.0000
  C   C401      1.0  0.06946  0.28683  0.35636  1.0000
  C   C402      1.0  0.71317  0.06946  0.35636  1.0000
  C   C403      1.0  0.93054  0.71317  0.35636  1.0000
  C   C404      1.0  0.28683  0.93054  0.35636  1.0000
  C   C405      1.0  0.56946  0.21317  0.14364  1.0000
  C   C406      1.0  0.78683  0.56946  0.14364  1.0000
  C   C407      1.0  0.43054  0.78683  0.14364  1.0000
  C   C408      1.0  0.21317  0.43054  0.14364  1.0000
  C   C409      1.0  0.93054  0.71317  0.64364  1.0000
  C   C410      1.0  0.28683  0.93054  0.64364  1.0000
  C   C411      1.0  0.06946  0.28683  0.64364  1.0000
  C   C412      1.0  0.71317  0.06946  0.64364  1.0000
  C   C413      1.0  0.43054  0.78683  0.85636  1.0000
  C   C414      1.0  0.21317  0.43054  0.85636  1.0000
  C   C415      1.0  0.56946  0.21317  0.85636  1.0000
  C   C416      1.0  0.78683  0.56946  0.85636  1.0000
  C   C417      1.0  0.95968  0.33945  0.45278  1.0000
  C   C418      1.0  0.66055  0.95968  0.45278  1.0000
  C   C419      1.0  0.04032  0.66055  0.45278  1.0000
  C   C420      1.0  0.33945  0.04032  0.45278  1.0000
  C   C421      1.0  0.45968  0.16055  0.04722  1.0000
  C   C422      1.0  0.83945  0.45968  0.04722  1.0000
  C   C423      1.0  0.54032  0.83945  0.04722  1.0000
  C   C424      1.0  0.16055  0.54032  0.04722  1.0000
  C   C425      1.0  0.04032  0.66055  0.54722  1.0000
  C   C426      1.0  0.33945  0.04032  0.54722  1.0000
  C   C427      1.0  0.95968  0.33945  0.54722  1.0000
  C   C428      1.0  0.66055  0.95968  0.54722  1.0000
  C   C429      1.0  0.54032  0.83945  0.95278  1.0000
  C   C430      1.0  0.16055  0.54032  0.95278  1.0000
  C   C431      1.0  0.45968  0.16055  0.95278  1.0000
  C   C432      1.0  0.83945  0.45968  0.95278  1.0000
  C   C433      1.0  0.18927  0.31073  0.25000  1.0000
  C   C434      1.0  0.68927  0.18927  0.25000  1.0000
  C   C435      1.0  0.81073  0.68927  0.25000  1.0000
  C   C436      1.0  0.31073  0.81073  0.25000  1.0000
  C   C437      1.0  0.81073  0.68927  0.75000  1.0000
  C   C438      1.0  0.31073  0.81073  0.75000  1.0000
  C   C439      1.0  0.18927  0.31073  0.75000  1.0000
  C   C440      1.0  0.68927  0.18927  0.75000  1.0000
  H   H233      1.0  0.21360  0.28640  0.25000  1.0000
  H   H234      1.0  0.71360  0.21360  0.25000  1.0000
  H   H235      1.0  0.78640  0.71360  0.25000  1.0000
  H   H236      1.0  0.28640  0.78640  0.25000  1.0000
  H   H237      1.0  0.78640  0.71360  0.75000  1.0000
  H   H238      1.0  0.28640  0.78640  0.75000  1.0000
  H   H239      1.0  0.21360  0.28640  0.75000  1.0000
  H   H240      1.0  0.71360  0.21360  0.75000  1.0000
