data_image0
_chemical_formula_structural       Ga18O144C36H18C36H18C36H18C90H18C18
_chemical_formula_sum              "Ga18 O144 C216 H72"
_cell_length_a       27.943
_cell_length_b       27.943
_cell_length_c       17.707
_cell_angle_alpha    90
_cell_angle_beta     90
_cell_angle_gamma    120

_space_group_name_H-M_alt    "P 1"
_space_group_IT_number       1

loop_
  _space_group_symop_operation_xyz
  'x, y, z'

loop_
  _atom_site_type_symbol
  _atom_site_label
  _atom_site_symmetry_multiplicity
  _atom_site_fract_x
  _atom_site_fract_y
  _atom_site_fract_z
  _atom_site_occupancy
  Ga  Ga1       1.0  0.88143  0.38769  0.85568  1.0000
  Ga  Ga2       1.0  0.61231  0.49374  0.85568  1.0000
  Ga  Ga3       1.0  0.50626  0.11857  0.85568  1.0000
  Ga  Ga4       1.0  0.61231  0.11857  0.35568  1.0000
  Ga  Ga5       1.0  0.50626  0.38769  0.35568  1.0000
  Ga  Ga6       1.0  0.88143  0.49374  0.35568  1.0000
  Ga  Ga7       1.0  0.54810  0.72103  0.18901  1.0000
  Ga  Ga8       1.0  0.27897  0.82707  0.18901  1.0000
  Ga  Ga9       1.0  0.17293  0.45190  0.18901  1.0000
  Ga  Ga10      1.0  0.27897  0.45190  0.68901  1.0000
  Ga  Ga11      1.0  0.17293  0.72103  0.68901  1.0000
  Ga  Ga12      1.0  0.54810  0.82707  0.68901  1.0000
  Ga  Ga13      1.0  0.21477  0.05436  0.52235  1.0000
  Ga  Ga14      1.0  0.94564  0.16041  0.52235  1.0000
  Ga  Ga15      1.0  0.83959  0.78523  0.52235  1.0000
  Ga  Ga16      1.0  0.94564  0.78523  0.02235  1.0000
  Ga  Ga17      1.0  0.83959  0.05436  0.02235  1.0000
  Ga  Ga18      1.0  0.21477  0.16041  0.02235  1.0000
  O   O1        1.0  0.92293  0.44915  0.79610  1.0000
  O   O2        1.0  0.55085  0.47378  0.79610  1.0000
  O   O3        1.0  0.52622  0.07707  0.79610  1.0000
  O   O4        1.0  0.55085  0.07707  0.29610  1.0000
  O   O5        1.0  0.52622  0.44915  0.29610  1.0000
  O   O6        1.0  0.92293  0.47378  0.29610  1.0000
  O   O7        1.0  0.58960  0.78248  0.12943  1.0000
  O   O8        1.0  0.21752  0.80711  0.12943  1.0000
  O   O9        1.0  0.19289  0.41040  0.12943  1.0000
  O   O10       1.0  0.21752  0.41040  0.62943  1.0000
  O   O11       1.0  0.19289  0.78248  0.62943  1.0000
  O   O12       1.0  0.58960  0.80711  0.62943  1.0000
  O   O13       1.0  0.25626  0.11582  0.46277  1.0000
  O   O14       1.0  0.88418  0.14045  0.46277  1.0000
  O   O15       1.0  0.85955  0.74374  0.46277  1.0000
  O   O16       1.0  0.88418  0.74374  0.96277  1.0000
  O   O17       1.0  0.85955  0.11582  0.96277  1.0000
  O   O18       1.0  0.25626  0.14045  0.96277  1.0000
  O   O19       1.0  0.86026  0.40910  0.70580  1.0000
  O   O20       1.0  0.59090  0.45116  0.70580  1.0000
  O   O21       1.0  0.54884  0.13974  0.70580  1.0000
  O   O22       1.0  0.59090  0.13974  0.20580  1.0000
  O   O23       1.0  0.54884  0.40910  0.20580  1.0000
  O   O24       1.0  0.86026  0.45116  0.20580  1.0000
  O   O25       1.0  0.52693  0.74243  0.03913  1.0000
  O   O26       1.0  0.25757  0.78449  0.03913  1.0000
  O   O27       1.0  0.21551  0.47307  0.03913  1.0000
  O   O28       1.0  0.25757  0.47307  0.53913  1.0000
  O   O29       1.0  0.21551  0.74243  0.53913  1.0000
  O   O30       1.0  0.52693  0.78449  0.53913  1.0000
  O   O31       1.0  0.19359  0.07577  0.37247  1.0000
  O   O32       1.0  0.92423  0.11783  0.37247  1.0000
  O   O33       1.0  0.88217  0.80641  0.37247  1.0000
  O   O34       1.0  0.92423  0.80641  0.87247  1.0000
  O   O35       1.0  0.88217  0.07577  0.87247  1.0000
  O   O36       1.0  0.19359  0.11783  0.87247  1.0000
  O   O37       1.0  0.90388  0.49299  0.45337  1.0000
  O   O38       1.0  0.50701  0.41089  0.45337  1.0000
  O   O39       1.0  0.58911  0.09612  0.45337  1.0000
  O   O40       1.0  0.50701  0.09612  0.95337  1.0000
  O   O41       1.0  0.58911  0.49299  0.95337  1.0000
  O   O42       1.0  0.90388  0.41089  0.95337  1.0000
  O   O43       1.0  0.57055  0.82632  0.78670  1.0000
  O   O44       1.0  0.17368  0.74422  0.78670  1.0000
  O   O45       1.0  0.25578  0.42945  0.78670  1.0000
  O   O46       1.0  0.17368  0.42945  0.28670  1.0000
  O   O47       1.0  0.25578  0.82632  0.28670  1.0000
  O   O48       1.0  0.57055  0.74422  0.28670  1.0000
  O   O49       1.0  0.23721  0.15966  0.12004  1.0000
  O   O50       1.0  0.84034  0.07756  0.12004  1.0000
  O   O51       1.0  0.92244  0.76279  0.12004  1.0000
  O   O52       1.0  0.84034  0.76279  0.62004  1.0000
  O   O53       1.0  0.92244  0.15966  0.62004  1.0000
  O   O54       1.0  0.23721  0.07756  0.62004  1.0000
  O   O55       1.0  0.98381  0.56985  0.43021  1.0000
  O   O56       1.0  0.43015  0.41396  0.43021  1.0000
  O   O57       1.0  0.58604  0.01619  0.43021  1.0000
  O   O58       1.0  0.43015  0.01619  0.93021  1.0000
  O   O59       1.0  0.58604  0.56985  0.93021  1.0000
  O   O60       1.0  0.98381  0.41396  0.93021  1.0000
  O   O61       1.0  0.65048  0.90318  0.76354  1.0000
  O   O62       1.0  0.09682  0.74729  0.76354  1.0000
  O   O63       1.0  0.25271  0.34952  0.76354  1.0000
  O   O64       1.0  0.09682  0.34952  0.26354  1.0000
  O   O65       1.0  0.25271  0.90318  0.26354  1.0000
  O   O66       1.0  0.65048  0.74729  0.26354  1.0000
  O   O67       1.0  0.31714  0.23652  0.09688  1.0000
  O   O68       1.0  0.76348  0.08063  0.09688  1.0000
  O   O69       1.0  0.91937  0.68286  0.09688  1.0000
  O   O70       1.0  0.76348  0.68286  0.59688  1.0000
  O   O71       1.0  0.91937  0.23652  0.59688  1.0000
  O   O72       1.0  0.31714  0.08063  0.59688  1.0000
  O   O73       1.0  0.10677  0.66710  0.64647  1.0000
  O   O74       1.0  0.33290  0.43967  0.64647  1.0000
  O   O75       1.0  0.56033  0.89323  0.64647  1.0000
  O   O76       1.0  0.33290  0.89323  0.14647  1.0000
  O   O77       1.0  0.56033  0.66710  0.14647  1.0000
  O   O78       1.0  0.10677  0.43967  0.14647  1.0000
  O   O79       1.0  0.77344  0.00043  0.97980  1.0000
  O   O80       1.0  0.99957  0.77300  0.97980  1.0000
  O   O81       1.0  0.22700  0.22656  0.97980  1.0000
  O   O82       1.0  0.99957  0.22656  0.47980  1.0000
  O   O83       1.0  0.22700  0.00043  0.47980  1.0000
  O   O84       1.0  0.77344  0.77300  0.47980  1.0000
  O   O85       1.0  0.44010  0.33377  0.31314  1.0000
  O   O86       1.0  0.66623  0.10634  0.31314  1.0000
  O   O87       1.0  0.89366  0.55990  0.31314  1.0000
  O   O88       1.0  0.66623  0.55990  0.81314  1.0000
  O   O89       1.0  0.89366  0.33377  0.81314  1.0000
  O   O90       1.0  0.44010  0.10634  0.81314  1.0000
  O   O91       1.0  0.09182  0.62371  0.75670  1.0000
  O   O92       1.0  0.37629  0.46811  0.75670  1.0000
  O   O93       1.0  0.53189  0.90818  0.75670  1.0000
  O   O94       1.0  0.37629  0.90818  0.25670  1.0000
  O   O95       1.0  0.53189  0.62371  0.25670  1.0000
  O   O96       1.0  0.09182  0.46811  0.25670  1.0000
  O   O97       1.0  0.75849  0.95704  0.09003  1.0000
  O   O98       1.0  0.04296  0.80144  0.09003  1.0000
  O   O99       1.0  0.19856  0.24151  0.09003  1.0000
  O   O100      1.0  0.04296  0.24151  0.59003  1.0000
  O   O101      1.0  0.19856  0.95704  0.59003  1.0000
  O   O102      1.0  0.75849  0.80144  0.59003  1.0000
  O   O103      1.0  0.42515  0.29038  0.42337  1.0000
  O   O104      1.0  0.70962  0.13478  0.42337  1.0000
  O   O105      1.0  0.86522  0.57485  0.42337  1.0000
  O   O106      1.0  0.70962  0.57485  0.92337  1.0000
  O   O107      1.0  0.86522  0.29038  0.92337  1.0000
  O   O108      1.0  0.42515  0.13478  0.92337  1.0000
  O   O109      1.0  0.80512  0.35455  0.85929  1.0000
  O   O110      1.0  0.64545  0.45057  0.85929  1.0000
  O   O111      1.0  0.54943  0.19488  0.85929  1.0000
  O   O112      1.0  0.64545  0.19488  0.35929  1.0000
  O   O113      1.0  0.54943  0.35455  0.35929  1.0000
  O   O114      1.0  0.80512  0.45057  0.35929  1.0000
  O   O115      1.0  0.47179  0.68788  0.19262  1.0000
  O   O116      1.0  0.31212  0.78390  0.19262  1.0000
  O   O117      1.0  0.21610  0.52821  0.19262  1.0000
  O   O118      1.0  0.31212  0.52821  0.69262  1.0000
  O   O119      1.0  0.21610  0.68788  0.69262  1.0000
  O   O120      1.0  0.47179  0.78390  0.69262  1.0000
  O   O121      1.0  0.13845  0.02122  0.52596  1.0000
  O   O122      1.0  0.97878  0.11724  0.52596  1.0000
  O   O123      1.0  0.88276  0.86155  0.52596  1.0000
  O   O124      1.0  0.97878  0.86155  0.02596  1.0000
  O   O125      1.0  0.88276  0.02122  0.02596  1.0000
  O   O126      1.0  0.13845  0.11724  0.02596  1.0000
  O   O127      1.0  0.81433  0.43685  0.86570  1.0000
  O   O128      1.0  0.56315  0.37748  0.86570  1.0000
  O   O129      1.0  0.62252  0.18567  0.86570  1.0000
  O   O130      1.0  0.56315  0.18567  0.36570  1.0000
  O   O131      1.0  0.62252  0.43685  0.36570  1.0000
  O   O132      1.0  0.81433  0.37748  0.36570  1.0000
  O   O133      1.0  0.48100  0.77018  0.19903  1.0000
  O   O134      1.0  0.22982  0.71081  0.19903  1.0000
  O   O135      1.0  0.28919  0.51900  0.19903  1.0000
  O   O136      1.0  0.22982  0.51900  0.69903  1.0000
  O   O137      1.0  0.28919  0.77018  0.69903  1.0000
  O   O138      1.0  0.48100  0.71081  0.69903  1.0000
  O   O139      1.0  0.14766  0.10352  0.53237  1.0000
  O   O140      1.0  0.89648  0.04415  0.53237  1.0000
  O   O141      1.0  0.95585  0.85234  0.53237  1.0000
  O   O142      1.0  0.89648  0.85234  0.03237  1.0000
  O   O143      1.0  0.95585  0.10352  0.03237  1.0000
  O   O144      1.0  0.14766  0.04415  0.03237  1.0000
  C   C1        1.0  0.94128  0.49381  0.67900  1.0000
  C   C2        1.0  0.50619  0.44747  0.67900  1.0000
  C   C3        1.0  0.55253  0.05872  0.67900  1.0000
  C   C4        1.0  0.50619  0.05872  0.17900  1.0000
  C   C5        1.0  0.55253  0.49381  0.17900  1.0000
  C   C6        1.0  0.94128  0.44747  0.17900  1.0000
  C   C7        1.0  0.60795  0.82714  0.01233  1.0000
  C   C8        1.0  0.17286  0.78080  0.01233  1.0000
  C   C9        1.0  0.21920  0.39205  0.01233  1.0000
  C   C10       1.0  0.17286  0.39205  0.51233  1.0000
  C   C11       1.0  0.21920  0.82714  0.51233  1.0000
  C   C12       1.0  0.60795  0.78080  0.51233  1.0000
  C   C13       1.0  0.27461  0.16048  0.34567  1.0000
  C   C14       1.0  0.83952  0.11414  0.34567  1.0000
  C   C15       1.0  0.88586  0.72539  0.34567  1.0000
  C   C16       1.0  0.83952  0.72539  0.84567  1.0000
  C   C17       1.0  0.88586  0.16048  0.84567  1.0000
  C   C18       1.0  0.27461  0.11414  0.84567  1.0000
  C   C19       1.0  0.92849  0.49335  0.60240  1.0000
  C   C20       1.0  0.50665  0.43514  0.60240  1.0000
  C   C21       1.0  0.56486  0.07151  0.60240  1.0000
  C   C22       1.0  0.50665  0.07151  0.10240  1.0000
  C   C23       1.0  0.56486  0.49335  0.10240  1.0000
  C   C24       1.0  0.92849  0.43514  0.10240  1.0000
  C   C25       1.0  0.59516  0.82668  0.93573  1.0000
  C   C26       1.0  0.17332  0.76847  0.93573  1.0000
  C   C27       1.0  0.23153  0.40484  0.93573  1.0000
  C   C28       1.0  0.17332  0.40484  0.43573  1.0000
  C   C29       1.0  0.23153  0.82668  0.43573  1.0000
  C   C30       1.0  0.59516  0.76847  0.43573  1.0000
  C   C31       1.0  0.26182  0.16002  0.26907  1.0000
  C   C32       1.0  0.83998  0.10181  0.26907  1.0000
  C   C33       1.0  0.89819  0.73818  0.26907  1.0000
  C   C34       1.0  0.83998  0.73818  0.76907  1.0000
  C   C35       1.0  0.89819  0.16002  0.76907  1.0000
  C   C36       1.0  0.26182  0.10181  0.76907  1.0000
  H   H1        1.0  0.89630  0.46390  0.58280  1.0000
  H   H2        1.0  0.53610  0.43240  0.58280  1.0000
  H   H3        1.0  0.56760  0.10370  0.58280  1.0000
  H   H4        1.0  0.53610  0.10370  0.08280  1.0000
  H   H5        1.0  0.56760  0.46390  0.08280  1.0000
  H   H6        1.0  0.89630  0.43240  0.08280  1.0000
  H   H7        1.0  0.56297  0.79723  0.91613  1.0000
  H   H8        1.0  0.20277  0.76573  0.91613  1.0000
  H   H9        1.0  0.23427  0.43703  0.91613  1.0000
  H   H10       1.0  0.20277  0.43703  0.41613  1.0000
  H   H11       1.0  0.23427  0.79723  0.41613  1.0000
  H   H12       1.0  0.56297  0.76573  0.41613  1.0000
  H   H13       1.0  0.22963  0.13057  0.24947  1.0000
  H   H14       1.0  0.86943  0.09907  0.24947  1.0000
  H   H15       1.0  0.90093  0.77037  0.24947  1.0000
  H   H16       1.0  0.86943  0.77037  0.74947  1.0000
  H   H17       1.0  0.90093  0.13057  0.74947  1.0000
  H   H18       1.0  0.22963  0.09907  0.74947  1.0000
  C   C37       1.0  0.96373  0.53670  0.55550  1.0000
  C   C38       1.0  0.46330  0.42703  0.55550  1.0000
  C   C39       1.0  0.57297  0.03627  0.55550  1.0000
  C   C40       1.0  0.46330  0.03627  0.05550  1.0000
  C   C41       1.0  0.57297  0.53670  0.05550  1.0000
  C   C42       1.0  0.96373  0.42703  0.05550  1.0000
  C   C43       1.0  0.63040  0.87003  0.88883  1.0000
  C   C44       1.0  0.12997  0.76036  0.88883  1.0000
  C   C45       1.0  0.23964  0.36960  0.88883  1.0000
  C   C46       1.0  0.12997  0.36960  0.38883  1.0000
  C   C47       1.0  0.23964  0.87003  0.38883  1.0000
  C   C48       1.0  0.63040  0.76036  0.38883  1.0000
  C   C49       1.0  0.29706  0.20337  0.22217  1.0000
  C   C50       1.0  0.79663  0.09370  0.22217  1.0000
  C   C51       1.0  0.90630  0.70294  0.22217  1.0000
  C   C52       1.0  0.79663  0.70294  0.72217  1.0000
  C   C53       1.0  0.90630  0.20337  0.72217  1.0000
  C   C54       1.0  0.29706  0.09370  0.72217  1.0000
  C   C55       1.0  0.01106  0.58087  0.58550  1.0000
  C   C56       1.0  0.41913  0.43019  0.58550  1.0000
  C   C57       1.0  0.56981  0.98894  0.58550  1.0000
  C   C58       1.0  0.41913  0.98894  0.08550  1.0000
  C   C59       1.0  0.56981  0.58087  0.08550  1.0000
  C   C60       1.0  0.01106  0.43019  0.08550  1.0000
  C   C61       1.0  0.67773  0.91420  0.91883  1.0000
  C   C62       1.0  0.08580  0.76352  0.91883  1.0000
  C   C63       1.0  0.23648  0.32227  0.91883  1.0000
  C   C64       1.0  0.08580  0.32227  0.41883  1.0000
  C   C65       1.0  0.23648  0.91420  0.41883  1.0000
  C   C66       1.0  0.67773  0.76352  0.41883  1.0000
  C   C67       1.0  0.34439  0.24754  0.25217  1.0000
  C   C68       1.0  0.75246  0.09686  0.25217  1.0000
  C   C69       1.0  0.90314  0.65561  0.25217  1.0000
  C   C70       1.0  0.75246  0.65561  0.75217  1.0000
  C   C71       1.0  0.90314  0.24754  0.75217  1.0000
  C   C72       1.0  0.34439  0.09686  0.75217  1.0000
  H   H19       1.0  0.03410  0.61030  0.55440  1.0000
  H   H20       1.0  0.38970  0.42380  0.55440  1.0000
  H   H21       1.0  0.57620  0.96590  0.55440  1.0000
  H   H22       1.0  0.38970  0.96590  0.05440  1.0000
  H   H23       1.0  0.57620  0.61030  0.05440  1.0000
  H   H24       1.0  0.03410  0.42380  0.05440  1.0000
  H   H25       1.0  0.70077  0.94363  0.88773  1.0000
  H   H26       1.0  0.05637  0.75713  0.88773  1.0000
  H   H27       1.0  0.24287  0.29923  0.88773  1.0000
  H   H28       1.0  0.05637  0.29923  0.38773  1.0000
  H   H29       1.0  0.24287  0.94363  0.38773  1.0000
  H   H30       1.0  0.70077  0.75713  0.38773  1.0000
  H   H31       1.0  0.36743  0.27697  0.22107  1.0000
  H   H32       1.0  0.72303  0.09047  0.22107  1.0000
  H   H33       1.0  0.90953  0.63257  0.22107  1.0000
  H   H34       1.0  0.72303  0.63257  0.72107  1.0000
  H   H35       1.0  0.90953  0.27697  0.72107  1.0000
  H   H36       1.0  0.36743  0.09047  0.72107  1.0000
  C   C73       1.0  0.02449  0.58194  0.66010  1.0000
  C   C74       1.0  0.41806  0.44255  0.66010  1.0000
  C   C75       1.0  0.55745  0.97551  0.66010  1.0000
  C   C76       1.0  0.41806  0.97551  0.16010  1.0000
  C   C77       1.0  0.55745  0.58194  0.16010  1.0000
  C   C78       1.0  0.02449  0.44255  0.16010  1.0000
  C   C79       1.0  0.69116  0.91527  0.99343  1.0000
  C   C80       1.0  0.08473  0.77588  0.99343  1.0000
  C   C81       1.0  0.22412  0.30884  0.99343  1.0000
  C   C82       1.0  0.08473  0.30884  0.49343  1.0000
  C   C83       1.0  0.22412  0.91527  0.49343  1.0000
  C   C84       1.0  0.69116  0.77588  0.49343  1.0000
  C   C85       1.0  0.35782  0.24861  0.32677  1.0000
  C   C86       1.0  0.75139  0.10922  0.32677  1.0000
  C   C87       1.0  0.89078  0.64218  0.32677  1.0000
  C   C88       1.0  0.75139  0.64218  0.82677  1.0000
  C   C89       1.0  0.89078  0.24861  0.82677  1.0000
  C   C90       1.0  0.35782  0.10922  0.82677  1.0000
  C   C91       1.0  0.99009  0.53875  0.70730  1.0000
  C   C92       1.0  0.46125  0.45134  0.70730  1.0000
  C   C93       1.0  0.54866  0.00991  0.70730  1.0000
  C   C94       1.0  0.46125  0.00991  0.20730  1.0000
  C   C95       1.0  0.54866  0.53875  0.20730  1.0000
  C   C96       1.0  0.99009  0.45134  0.20730  1.0000
  C   C97       1.0  0.65676  0.87208  0.04063  1.0000
  C   C98       1.0  0.12792  0.78467  0.04063  1.0000
  C   C99       1.0  0.21533  0.34324  0.04063  1.0000
  C   C100      1.0  0.12792  0.34324  0.54063  1.0000
  C   C101      1.0  0.21533  0.87208  0.54063  1.0000
  C   C102      1.0  0.65676  0.78467  0.54063  1.0000
  C   C103      1.0  0.32342  0.20542  0.37397  1.0000
  C   C104      1.0  0.79458  0.11801  0.37397  1.0000
  C   C105      1.0  0.88199  0.67658  0.37397  1.0000
  C   C106      1.0  0.79458  0.67658  0.87397  1.0000
  C   C107      1.0  0.88199  0.20542  0.87397  1.0000
  C   C108      1.0  0.32342  0.11801  0.87397  1.0000
  H   H37       1.0  0.99930  0.53950  0.75790  1.0000
  H   H38       1.0  0.46050  0.45980  0.75790  1.0000
  H   H39       1.0  0.54020  0.00070  0.75790  1.0000
  H   H40       1.0  0.46050  0.00070  0.25790  1.0000
  H   H41       1.0  0.54020  0.53950  0.25790  1.0000
  H   H42       1.0  0.99930  0.45980  0.25790  1.0000
  H   H43       1.0  0.66597  0.87283  0.09123  1.0000
  H   H44       1.0  0.12717  0.79313  0.09123  1.0000
  H   H45       1.0  0.20687  0.33403  0.09123  1.0000
  H   H46       1.0  0.12717  0.33403  0.59123  1.0000
  H   H47       1.0  0.20687  0.87283  0.59123  1.0000
  H   H48       1.0  0.66597  0.79313  0.59123  1.0000
  H   H49       1.0  0.33263  0.20617  0.42457  1.0000
  H   H50       1.0  0.79383  0.12647  0.42457  1.0000
  H   H51       1.0  0.87353  0.66737  0.42457  1.0000
  H   H52       1.0  0.79383  0.66737  0.92457  1.0000
  H   H53       1.0  0.87353  0.20617  0.92457  1.0000
  H   H54       1.0  0.33263  0.12647  0.92457  1.0000
  C   C109      1.0  0.90450  0.44700  0.72890  1.0000
  C   C110      1.0  0.55300  0.45750  0.72890  1.0000
  C   C111      1.0  0.54250  0.09550  0.72890  1.0000
  C   C112      1.0  0.55300  0.09550  0.22890  1.0000
  C   C113      1.0  0.54250  0.44700  0.22890  1.0000
  C   C114      1.0  0.90450  0.45750  0.22890  1.0000
  C   C115      1.0  0.57117  0.78033  0.06223  1.0000
  C   C116      1.0  0.21967  0.79083  0.06223  1.0000
  C   C117      1.0  0.20917  0.42883  0.06223  1.0000
  C   C118      1.0  0.21967  0.42883  0.56223  1.0000
  C   C119      1.0  0.20917  0.78033  0.56223  1.0000
  C   C120      1.0  0.57117  0.79083  0.56223  1.0000
  C   C121      1.0  0.23783  0.11367  0.39557  1.0000
  C   C122      1.0  0.88633  0.12417  0.39557  1.0000
  C   C123      1.0  0.87583  0.76217  0.39557  1.0000
  C   C124      1.0  0.88633  0.76217  0.89557  1.0000
  C   C125      1.0  0.87583  0.11367  0.89557  1.0000
  C   C126      1.0  0.23783  0.12417  0.89557  1.0000
  C   C127      1.0  0.95120  0.53465  0.47310  1.0000
  C   C128      1.0  0.46535  0.41655  0.47310  1.0000
  C   C129      1.0  0.58345  0.04880  0.47310  1.0000
  C   C130      1.0  0.46535  0.04880  0.97310  1.0000
  C   C131      1.0  0.58345  0.53465  0.97310  1.0000
  C   C132      1.0  0.95120  0.41655  0.97310  1.0000
  C   C133      1.0  0.61787  0.86798  0.80643  1.0000
  C   C134      1.0  0.13202  0.74988  0.80643  1.0000
  C   C135      1.0  0.25012  0.38213  0.80643  1.0000
  C   C136      1.0  0.13202  0.38213  0.30643  1.0000
  C   C137      1.0  0.25012  0.86798  0.30643  1.0000
  C   C138      1.0  0.61787  0.74988  0.30643  1.0000
  C   C139      1.0  0.28453  0.20132  0.13977  1.0000
  C   C140      1.0  0.79868  0.08322  0.13977  1.0000
  C   C141      1.0  0.91678  0.71547  0.13977  1.0000
  C   C142      1.0  0.79868  0.71547  0.63977  1.0000
  C   C143      1.0  0.91678  0.20132  0.63977  1.0000
  C   C144      1.0  0.28453  0.08322  0.63977  1.0000
  C   C145      1.0  0.07700  0.62630  0.69280  1.0000
  C   C146      1.0  0.37370  0.45070  0.69280  1.0000
  C   C147      1.0  0.54930  0.92300  0.69280  1.0000
  C   C148      1.0  0.37370  0.92300  0.19280  1.0000
  C   C149      1.0  0.54930  0.62630  0.19280  1.0000
  C   C150      1.0  0.07700  0.45070  0.19280  1.0000
  C   C151      1.0  0.74367  0.95963  0.02613  1.0000
  C   C152      1.0  0.04037  0.78403  0.02613  1.0000
  C   C153      1.0  0.21597  0.25633  0.02613  1.0000
  C   C154      1.0  0.04037  0.25633  0.52613  1.0000
  C   C155      1.0  0.21597  0.95963  0.52613  1.0000
  C   C156      1.0  0.74367  0.78403  0.52613  1.0000
  C   C157      1.0  0.41033  0.29297  0.35947  1.0000
  C   C158      1.0  0.70703  0.11737  0.35947  1.0000
  C   C159      1.0  0.88263  0.58967  0.35947  1.0000
  C   C160      1.0  0.70703  0.58967  0.85947  1.0000
  C   C161      1.0  0.88263  0.29297  0.85947  1.0000
  C   C162      1.0  0.41033  0.11737  0.85947  1.0000
  C   C163      1.0  0.72369  0.35800  0.86080  1.0000
  C   C164      1.0  0.64200  0.36569  0.86080  1.0000
  C   C165      1.0  0.63431  0.27631  0.86080  1.0000
  C   C166      1.0  0.64200  0.27631  0.36080  1.0000
  C   C167      1.0  0.63431  0.35800  0.36080  1.0000
  C   C168      1.0  0.72369  0.36569  0.36080  1.0000
  C   C169      1.0  0.39036  0.69133  0.19413  1.0000
  C   C170      1.0  0.30867  0.69902  0.19413  1.0000
  C   C171      1.0  0.30098  0.60964  0.19413  1.0000
  C   C172      1.0  0.30867  0.60964  0.69413  1.0000
  C   C173      1.0  0.30098  0.69133  0.69413  1.0000
  C   C174      1.0  0.39036  0.69902  0.69413  1.0000
  C   C175      1.0  0.05702  0.02467  0.52747  1.0000
  C   C176      1.0  0.97533  0.03236  0.52747  1.0000
  C   C177      1.0  0.96764  0.94298  0.52747  1.0000
  C   C178      1.0  0.97533  0.94298  0.02747  1.0000
  C   C179      1.0  0.96764  0.02467  0.02747  1.0000
  C   C180      1.0  0.05702  0.03236  0.02747  1.0000
  C   C181      1.0  0.69790  0.38950  0.86000  1.0000
  C   C182      1.0  0.61050  0.30840  0.86000  1.0000
  C   C183      1.0  0.69160  0.30210  0.86000  1.0000
  C   C184      1.0  0.61050  0.30210  0.36000  1.0000
  C   C185      1.0  0.69160  0.38950  0.36000  1.0000
  C   C186      1.0  0.69790  0.30840  0.36000  1.0000
  C   C187      1.0  0.36457  0.72283  0.19333  1.0000
  C   C188      1.0  0.27717  0.64173  0.19333  1.0000
  C   C189      1.0  0.35827  0.63543  0.19333  1.0000
  C   C190      1.0  0.27717  0.63543  0.69333  1.0000
  C   C191      1.0  0.35827  0.72283  0.69333  1.0000
  C   C192      1.0  0.36457  0.64173  0.69333  1.0000
  C   C193      1.0  0.03123  0.05617  0.52667  1.0000
  C   C194      1.0  0.94383  0.97507  0.52667  1.0000
  C   C195      1.0  0.02493  0.96877  0.52667  1.0000
  C   C196      1.0  0.94383  0.96877  0.02667  1.0000
  C   C197      1.0  0.02493  0.05617  0.02667  1.0000
  C   C198      1.0  0.03123  0.97507  0.02667  1.0000
  H   H55       1.0  0.71950  0.42790  0.85880  1.0000
  H   H56       1.0  0.57210  0.29160  0.85880  1.0000
  H   H57       1.0  0.70840  0.28050  0.85880  1.0000
  H   H58       1.0  0.57210  0.28050  0.35880  1.0000
  H   H59       1.0  0.70840  0.42790  0.35880  1.0000
  H   H60       1.0  0.71950  0.29160  0.35880  1.0000
  H   H61       1.0  0.38617  0.76123  0.19213  1.0000
  H   H62       1.0  0.23877  0.62493  0.19213  1.0000
  H   H63       1.0  0.37507  0.61383  0.19213  1.0000
  H   H64       1.0  0.23877  0.61383  0.69213  1.0000
  H   H65       1.0  0.37507  0.76123  0.69213  1.0000
  H   H66       1.0  0.38617  0.62493  0.69213  1.0000
  H   H67       1.0  0.05283  0.09457  0.52547  1.0000
  H   H68       1.0  0.90543  0.95827  0.52547  1.0000
  H   H69       1.0  0.04173  0.94717  0.52547  1.0000
  H   H70       1.0  0.90543  0.94717  0.02547  1.0000
  H   H71       1.0  0.04173  0.09457  0.02547  1.0000
  H   H72       1.0  0.05283  0.95827  0.02547  1.0000
  C   C199      1.0  0.78570  0.38670  0.86250  1.0000
  C   C200      1.0  0.61330  0.39900  0.86250  1.0000
  C   C201      1.0  0.60100  0.21430  0.86250  1.0000
  C   C202      1.0  0.61330  0.21430  0.36250  1.0000
  C   C203      1.0  0.60100  0.38670  0.36250  1.0000
  C   C204      1.0  0.78570  0.39900  0.36250  1.0000
  C   C205      1.0  0.45237  0.72003  0.19583  1.0000
  C   C206      1.0  0.27997  0.73233  0.19583  1.0000
  C   C207      1.0  0.26767  0.54763  0.19583  1.0000
  C   C208      1.0  0.27997  0.54763  0.69583  1.0000
  C   C209      1.0  0.26767  0.72003  0.69583  1.0000
  C   C210      1.0  0.45237  0.73233  0.69583  1.0000
  C   C211      1.0  0.11903  0.05337  0.52917  1.0000
  C   C212      1.0  0.94663  0.06567  0.52917  1.0000
  C   C213      1.0  0.93433  0.88097  0.52917  1.0000
  C   C214      1.0  0.94663  0.88097  0.02917  1.0000
  C   C215      1.0  0.93433  0.05337  0.02917  1.0000
  C   C216      1.0  0.11903  0.06567  0.02917  1.0000
