data_image0
_chemical_formula_structural       Cu4S4O16C4H4C4H4C4H4C4H4C8N20
_chemical_formula_sum              "Cu4 S4 O16 C24 H16 N20"
_cell_length_a       11.3959
_cell_length_b       10.4591
_cell_length_c       12.0996
_cell_angle_alpha    90
_cell_angle_beta     117.506
_cell_angle_gamma    90

_space_group_name_H-M_alt    "P 1"
_space_group_IT_number       1

loop_
  _space_group_symop_operation_xyz
  'x, y, z'

loop_
  _atom_site_type_symbol
  _atom_site_label
  _atom_site_symmetry_multiplicity
  _atom_site_fract_x
  _atom_site_fract_y
  _atom_site_fract_z
  _atom_site_occupancy
  Cu  Cu1       1.0  0.12293  0.39665  0.15303  1.0000
  Cu  Cu2       1.0  0.37707  0.89665  0.34697  1.0000
  Cu  Cu3       1.0  0.87707  0.60335  0.84697  1.0000
  Cu  Cu4       1.0  0.62293  0.10335  0.65303  1.0000
  S   S1        1.0  0.22777  0.14116  0.14886  1.0000
  S   S2        1.0  0.27223  0.64116  0.35114  1.0000
  S   S3        1.0  0.77223  0.85884  0.85114  1.0000
  S   S4        1.0  0.72777  0.35884  0.64886  1.0000
  O   O1        1.0  0.26591  0.27106  0.20930  1.0000
  O   O2        1.0  0.23409  0.77106  0.29070  1.0000
  O   O3        1.0  0.73409  0.72894  0.79070  1.0000
  O   O4        1.0  0.76591  0.22894  0.70930  1.0000
  O   O5        1.0  0.08820  0.14980  0.05248  1.0000
  O   O6        1.0  0.41180  0.64980  0.44752  1.0000
  O   O7        1.0  0.91180  0.85020  0.94752  1.0000
  O   O8        1.0  0.58820  0.35020  0.55248  1.0000
  O   O9        1.0  0.23650  0.04970  0.24661  1.0000
  O   O10       1.0  0.26350  0.54970  0.25339  1.0000
  O   O11       1.0  0.76350  0.95030  0.75339  1.0000
  O   O12       1.0  0.73650  0.45030  0.74661  1.0000
  O   O13       1.0  0.31630  0.10490  0.09840  1.0000
  O   O14       1.0  0.18370  0.60490  0.40160  1.0000
  O   O15       1.0  0.68370  0.89510  0.90160  1.0000
  O   O16       1.0  0.81630  0.39510  0.59840  1.0000
  C   C1        1.0  0.14780  0.26670  0.38740  1.0000
  C   C2        1.0  0.35220  0.76670  0.11260  1.0000
  C   C3        1.0  0.85220  0.73330  0.61260  1.0000
  C   C4        1.0  0.64780  0.23330  0.88740  1.0000
  H   H1        1.0  0.22600  0.22790  0.39360  1.0000
  H   H2        1.0  0.27400  0.72790  0.10640  1.0000
  H   H3        1.0  0.77400  0.77210  0.60640  1.0000
  H   H4        1.0  0.72600  0.27210  0.89360  1.0000
  C   C5        1.0  0.10930  0.24210  0.47880  1.0000
  C   C6        1.0  0.39070  0.74210  0.02120  1.0000
  C   C7        1.0  0.89070  0.75790  0.52120  1.0000
  C   C8        1.0  0.60930  0.25790  0.97880  1.0000
  H   H5        1.0  0.15950  0.18540  0.54550  1.0000
  H   H6        1.0  0.34050  0.68540  0.95450  1.0000
  H   H7        1.0  0.84050  0.81460  0.45450  1.0000
  H   H8        1.0  0.65950  0.31460  0.04550  1.0000
  C   C9        1.0  0.99700  0.30110  0.47210  1.0000
  C   C10       1.0  0.50300  0.80110  0.02790  1.0000
  C   C11       1.0  0.00300  0.69890  0.52790  1.0000
  C   C12       1.0  0.49700  0.19890  0.97210  1.0000
  H   H9        1.0  0.97000  0.28620  0.53450  1.0000
  H   H10       1.0  0.53000  0.78620  0.96550  1.0000
  H   H11       1.0  0.03000  0.71380  0.46550  1.0000
  H   H12       1.0  0.47000  0.21380  0.03450  1.0000
  C   C13       1.0  0.92530  0.38140  0.37360  1.0000
  C   C14       1.0  0.57470  0.88140  0.12640  1.0000
  C   C15       1.0  0.07470  0.61860  0.62640  1.0000
  C   C16       1.0  0.42530  0.11860  0.87360  1.0000
  H   H13       1.0  0.84850  0.42350  0.36710  1.0000
  H   H14       1.0  0.65150  0.92350  0.13290  1.0000
  H   H15       1.0  0.15150  0.57650  0.63290  1.0000
  H   H16       1.0  0.34850  0.07650  0.86710  1.0000
  C   C17       1.0  0.96730  0.39950  0.28440  1.0000
  C   C18       1.0  0.53270  0.89950  0.21560  1.0000
  C   C19       1.0  0.03270  0.60050  0.71560  1.0000
  C   C20       1.0  0.46730  0.10050  0.78440  1.0000
  C   C21       1.0  0.89770  0.47780  0.17280  1.0000
  C   C22       1.0  0.60230  0.97780  0.32720  1.0000
  C   C23       1.0  0.10230  0.52220  0.82720  1.0000
  C   C24       1.0  0.39770  0.02220  0.67280  1.0000
  N   N1        1.0  0.07730  0.34360  0.29070  1.0000
  N   N2        1.0  0.42270  0.84360  0.20930  1.0000
  N   N3        1.0  0.92270  0.65640  0.70930  1.0000
  N   N4        1.0  0.57730  0.15640  0.79070  1.0000
  N   N5        1.0  0.94940  0.48870  0.09480  1.0000
  N   N6        1.0  0.55060  0.98870  0.40520  1.0000
  N   N7        1.0  0.05060  0.51130  0.90520  1.0000
  N   N8        1.0  0.44940  0.01130  0.59480  1.0000
  N   N9        1.0  0.78250  0.53790  0.13190  1.0000
  N   N10       1.0  0.71750  0.03790  0.36810  1.0000
  N   N11       1.0  0.21750  0.46210  0.86810  1.0000
  N   N12       1.0  0.28250  0.96210  0.63190  1.0000
  N   N13       1.0  0.86130  0.56010  0.00010  1.0000
  N   N14       1.0  0.63870  0.06010  0.49990  1.0000
  N   N15       1.0  0.13870  0.43990  0.99990  1.0000
  N   N16       1.0  0.36130  0.93990  0.50010  1.0000
  N   N17       1.0  0.76160  0.58910  0.02230  1.0000
  N   N18       1.0  0.73840  0.08910  0.47770  1.0000
  N   N19       1.0  0.23840  0.41090  0.97770  1.0000
  N   N20       1.0  0.26160  0.91090  0.52230  1.0000
