data_image0
_chemical_formula_structural       Ho8N16O80C8H16C8H16C8H16C8H16C8H16C8H16C16H16C16H16C16H16C16H16
_chemical_formula_sum              "Ho8 N16 O80 C112 H160"
_cell_length_a       38.4755
_cell_length_b       13.5569
_cell_length_c       8.7343
_cell_angle_alpha    90
_cell_angle_beta     100.135
_cell_angle_gamma    90

_space_group_name_H-M_alt    "P 1"
_space_group_IT_number       1

loop_
  _space_group_symop_operation_xyz
  'x, y, z'

loop_
  _atom_site_type_symbol
  _atom_site_label
  _atom_site_symmetry_multiplicity
  _atom_site_fract_x
  _atom_site_fract_y
  _atom_site_fract_z
  _atom_site_occupancy
  Ho  Ho1       1.0  0.37525  0.18427  0.24537  1.0000
  Ho  Ho2       1.0  0.62475  0.18427  0.25463  1.0000
  Ho  Ho3       1.0  0.87525  0.68427  0.24537  1.0000
  Ho  Ho4       1.0  0.12475  0.68427  0.25463  1.0000
  Ho  Ho5       1.0  0.62475  0.81573  0.75463  1.0000
  Ho  Ho6       1.0  0.37525  0.81573  0.74537  1.0000
  Ho  Ho7       1.0  0.12475  0.31573  0.75463  1.0000
  Ho  Ho8       1.0  0.87525  0.31573  0.74537  1.0000
  N   N1        1.0  0.32981  0.15510  0.98770  1.0000
  N   N2        1.0  0.67019  0.15510  0.51230  1.0000
  N   N3        1.0  0.82981  0.65510  0.98770  1.0000
  N   N4        1.0  0.17019  0.65510  0.51230  1.0000
  N   N5        1.0  0.67019  0.84490  0.01230  1.0000
  N   N6        1.0  0.32981  0.84490  0.48770  1.0000
  N   N7        1.0  0.17019  0.34490  0.01230  1.0000
  N   N8        1.0  0.82981  0.34490  0.48770  1.0000
  N   N9        1.0  0.42406  0.31740  0.31480  1.0000
  N   N10       1.0  0.57594  0.31740  0.18520  1.0000
  N   N11       1.0  0.92406  0.81740  0.31480  1.0000
  N   N12       1.0  0.07594  0.81740  0.18520  1.0000
  N   N13       1.0  0.57594  0.68260  0.68520  1.0000
  N   N14       1.0  0.42406  0.68260  0.81480  1.0000
  N   N15       1.0  0.07594  0.18260  0.68520  1.0000
  N   N16       1.0  0.92406  0.18260  0.81480  1.0000
  O   O1        1.0  0.31307  0.17520  0.29020  1.0000
  O   O2        1.0  0.68693  0.17520  0.20980  1.0000
  O   O3        1.0  0.81307  0.67520  0.29020  1.0000
  O   O4        1.0  0.18693  0.67520  0.20980  1.0000
  O   O5        1.0  0.68693  0.82480  0.70980  1.0000
  O   O6        1.0  0.31307  0.82480  0.79020  1.0000
  O   O7        1.0  0.18693  0.32480  0.70980  1.0000
  O   O8        1.0  0.81307  0.32480  0.79020  1.0000
  O   O9        1.0  0.36355  0.29550  0.45520  1.0000
  O   O10       1.0  0.63645  0.29550  0.04480  1.0000
  O   O11       1.0  0.86355  0.79550  0.45520  1.0000
  O   O12       1.0  0.13645  0.79550  0.04480  1.0000
  O   O13       1.0  0.63645  0.70450  0.54480  1.0000
  O   O14       1.0  0.36355  0.70450  0.95520  1.0000
  O   O15       1.0  0.13645  0.20450  0.54480  1.0000
  O   O16       1.0  0.86355  0.20450  0.95520  1.0000
  O   O17       1.0  0.37638  0.02930  0.14300  1.0000
  O   O18       1.0  0.62362  0.02930  0.35700  1.0000
  O   O19       1.0  0.87638  0.52930  0.14300  1.0000
  O   O20       1.0  0.12362  0.52930  0.35700  1.0000
  O   O21       1.0  0.62362  0.97070  0.85700  1.0000
  O   O22       1.0  0.37638  0.97070  0.64300  1.0000
  O   O23       1.0  0.12362  0.47070  0.85700  1.0000
  O   O24       1.0  0.87638  0.47070  0.64300  1.0000
  O   O25       1.0  0.37003  0.91790  0.95650  1.0000
  O   O26       1.0  0.62997  0.91790  0.54350  1.0000
  O   O27       1.0  0.87003  0.41790  0.95650  1.0000
  O   O28       1.0  0.12997  0.41790  0.54350  1.0000
  O   O29       1.0  0.62997  0.08210  0.04350  1.0000
  O   O30       1.0  0.37003  0.08210  0.45650  1.0000
  O   O31       1.0  0.12997  0.58210  0.04350  1.0000
  O   O32       1.0  0.87003  0.58210  0.45650  1.0000
  O   O33       1.0  0.34541  0.32840  0.13880  1.0000
  O   O34       1.0  0.65459  0.32840  0.36120  1.0000
  O   O35       1.0  0.84541  0.82840  0.13880  1.0000
  O   O36       1.0  0.15459  0.82840  0.36120  1.0000
  O   O37       1.0  0.65459  0.67160  0.86120  1.0000
  O   O38       1.0  0.34541  0.67160  0.63880  1.0000
  O   O39       1.0  0.15459  0.17160  0.86120  1.0000
  O   O40       1.0  0.84541  0.17160  0.63880  1.0000
  O   O41       1.0  0.31243  0.41490  0.95060  1.0000
  O   O42       1.0  0.68757  0.41490  0.54940  1.0000
  O   O43       1.0  0.81243  0.91490  0.95060  1.0000
  O   O44       1.0  0.18757  0.91490  0.54940  1.0000
  O   O45       1.0  0.68757  0.58510  0.04940  1.0000
  O   O46       1.0  0.31243  0.58510  0.45060  1.0000
  O   O47       1.0  0.18757  0.08510  0.04940  1.0000
  O   O48       1.0  0.81243  0.08510  0.45060  1.0000
  O   O49       1.0  0.40475  0.22640  0.04230  1.0000
  O   O50       1.0  0.59525  0.22640  0.45770  1.0000
  O   O51       1.0  0.90475  0.72640  0.04230  1.0000
  O   O52       1.0  0.09525  0.72640  0.45770  1.0000
  O   O53       1.0  0.59525  0.77360  0.95770  1.0000
  O   O54       1.0  0.40475  0.77360  0.54230  1.0000
  O   O55       1.0  0.09525  0.27360  0.95770  1.0000
  O   O56       1.0  0.90475  0.27360  0.54230  1.0000
  O   O57       1.0  0.42180  0.35060  0.90690  1.0000
  O   O58       1.0  0.57820  0.35060  0.59310  1.0000
  O   O59       1.0  0.92180  0.85060  0.90690  1.0000
  O   O60       1.0  0.07820  0.85060  0.59310  1.0000
  O   O61       1.0  0.57820  0.64940  0.09310  1.0000
  O   O62       1.0  0.42180  0.64940  0.40690  1.0000
  O   O63       1.0  0.07820  0.14940  0.09310  1.0000
  O   O64       1.0  0.92180  0.14940  0.40690  1.0000
  O   O65       1.0  0.43047  0.12000  0.35320  1.0000
  O   O66       1.0  0.56953  0.12000  0.14680  1.0000
  O   O67       1.0  0.93047  0.62000  0.35320  1.0000
  O   O68       1.0  0.06953  0.62000  0.14680  1.0000
  O   O69       1.0  0.56953  0.88000  0.64680  1.0000
  O   O70       1.0  0.43047  0.88000  0.85320  1.0000
  O   O71       1.0  0.06953  0.38000  0.64680  1.0000
  O   O72       1.0  0.93047  0.38000  0.85320  1.0000
  O   O73       1.0  0.48811  0.12510  0.43270  1.0000
  O   O74       1.0  0.51189  0.12510  0.06730  1.0000
  O   O75       1.0  0.98811  0.62510  0.43270  1.0000
  O   O76       1.0  0.01189  0.62510  0.06730  1.0000
  O   O77       1.0  0.51189  0.87490  0.56730  1.0000
  O   O78       1.0  0.48811  0.87490  0.93270  1.0000
  O   O79       1.0  0.01189  0.37490  0.56730  1.0000
  O   O80       1.0  0.98811  0.37490  0.93270  1.0000
  C   C1        1.0  0.29615  0.12200  0.03280  1.0000
  C   C2        1.0  0.70385  0.12200  0.46720  1.0000
  C   C3        1.0  0.79615  0.62200  0.03280  1.0000
  C   C4        1.0  0.20385  0.62200  0.46720  1.0000
  C   C5        1.0  0.70385  0.87800  0.96720  1.0000
  C   C6        1.0  0.29615  0.87800  0.53280  1.0000
  C   C7        1.0  0.20385  0.37800  0.96720  1.0000
  C   C8        1.0  0.79615  0.37800  0.53280  1.0000
  H   H1        1.0  0.29870  0.05370  0.06600  1.0000
  H   H2        1.0  0.70130  0.05370  0.43400  1.0000
  H   H3        1.0  0.79870  0.55370  0.06600  1.0000
  H   H4        1.0  0.20130  0.55370  0.43400  1.0000
  H   H5        1.0  0.70130  0.94630  0.93400  1.0000
  H   H6        1.0  0.29870  0.94630  0.56600  1.0000
  H   H7        1.0  0.20130  0.44630  0.93400  1.0000
  H   H8        1.0  0.79870  0.44630  0.56600  1.0000
  H   H9        1.0  0.27760  0.12490  0.94200  1.0000
  H   H10       1.0  0.72240  0.12490  0.55800  1.0000
  H   H11       1.0  0.77760  0.62490  0.94200  1.0000
  H   H12       1.0  0.22240  0.62490  0.55800  1.0000
  H   H13       1.0  0.72240  0.87510  0.05800  1.0000
  H   H14       1.0  0.27760  0.87510  0.44200  1.0000
  H   H15       1.0  0.22240  0.37510  0.05800  1.0000
  H   H16       1.0  0.77760  0.37510  0.44200  1.0000
  C   C9        1.0  0.28518  0.18170  0.15970  1.0000
  C   C10       1.0  0.71482  0.18170  0.34030  1.0000
  C   C11       1.0  0.78518  0.68170  0.15970  1.0000
  C   C12       1.0  0.21482  0.68170  0.34030  1.0000
  C   C13       1.0  0.71482  0.81830  0.84030  1.0000
  C   C14       1.0  0.28518  0.81830  0.65970  1.0000
  C   C15       1.0  0.21482  0.31830  0.84030  1.0000
  C   C16       1.0  0.78518  0.31830  0.65970  1.0000
  H   H17       1.0  0.28130  0.24980  0.12720  1.0000
  H   H18       1.0  0.71870  0.24980  0.37280  1.0000
  H   H19       1.0  0.78130  0.74980  0.12720  1.0000
  H   H20       1.0  0.21870  0.74980  0.37280  1.0000
  H   H21       1.0  0.71870  0.75020  0.87280  1.0000
  H   H22       1.0  0.28130  0.75020  0.62720  1.0000
  H   H23       1.0  0.21870  0.25020  0.87280  1.0000
  H   H24       1.0  0.78130  0.25020  0.62720  1.0000
  H   H25       1.0  0.26350  0.15590  0.18590  1.0000
  H   H26       1.0  0.73650  0.15590  0.31410  1.0000
  H   H27       1.0  0.76350  0.65590  0.18590  1.0000
  H   H28       1.0  0.23650  0.65590  0.31410  1.0000
  H   H29       1.0  0.73650  0.84410  0.81410  1.0000
  H   H30       1.0  0.26350  0.84410  0.68590  1.0000
  H   H31       1.0  0.23650  0.34410  0.81410  1.0000
  H   H32       1.0  0.76350  0.34410  0.68590  1.0000
  C   C17       1.0  0.30686  0.22110  0.43130  1.0000
  C   C18       1.0  0.69314  0.22110  0.06870  1.0000
  C   C19       1.0  0.80686  0.72110  0.43130  1.0000
  C   C20       1.0  0.19314  0.72110  0.06870  1.0000
  C   C21       1.0  0.69314  0.77890  0.56870  1.0000
  C   C22       1.0  0.30686  0.77890  0.93130  1.0000
  C   C23       1.0  0.19314  0.27890  0.56870  1.0000
  C   C24       1.0  0.80686  0.27890  0.93130  1.0000
  H   H33       1.0  0.31420  0.17680  0.51830  1.0000
  H   H34       1.0  0.68580  0.17680  0.98170  1.0000
  H   H35       1.0  0.81420  0.67680  0.51830  1.0000
  H   H36       1.0  0.18580  0.67680  0.98170  1.0000
  H   H37       1.0  0.68580  0.82320  0.48170  1.0000
  H   H38       1.0  0.31420  0.82320  0.01830  1.0000
  H   H39       1.0  0.18580  0.32320  0.48170  1.0000
  H   H40       1.0  0.81420  0.32320  0.01830  1.0000
  H   H41       1.0  0.28180  0.23390  0.42400  1.0000
  H   H42       1.0  0.71820  0.23390  0.07600  1.0000
  H   H43       1.0  0.78180  0.73390  0.42400  1.0000
  H   H44       1.0  0.21820  0.73390  0.07600  1.0000
  H   H45       1.0  0.71820  0.76610  0.57600  1.0000
  H   H46       1.0  0.28180  0.76610  0.92400  1.0000
  H   H47       1.0  0.21820  0.26610  0.57600  1.0000
  H   H48       1.0  0.78180  0.26610  0.92400  1.0000
  C   C25       1.0  0.32621  0.31290  0.45840  1.0000
  C   C26       1.0  0.67379  0.31290  0.04160  1.0000
  C   C27       1.0  0.82621  0.81290  0.45840  1.0000
  C   C28       1.0  0.17379  0.81290  0.04160  1.0000
  C   C29       1.0  0.67379  0.68710  0.54160  1.0000
  C   C30       1.0  0.32621  0.68710  0.95840  1.0000
  C   C31       1.0  0.17379  0.18710  0.54160  1.0000
  C   C32       1.0  0.82621  0.18710  0.95840  1.0000
  H   H49       1.0  0.32360  0.33970  0.55860  1.0000
  H   H50       1.0  0.67640  0.33970  0.94140  1.0000
  H   H51       1.0  0.82360  0.83970  0.55860  1.0000
  H   H52       1.0  0.17640  0.83970  0.94140  1.0000
  H   H53       1.0  0.67640  0.66030  0.44140  1.0000
  H   H54       1.0  0.32360  0.66030  0.05860  1.0000
  H   H55       1.0  0.17640  0.16030  0.44140  1.0000
  H   H56       1.0  0.82360  0.16030  0.05860  1.0000
  H   H57       1.0  0.31680  0.36040  0.37880  1.0000
  H   H58       1.0  0.68320  0.36040  0.12120  1.0000
  H   H59       1.0  0.81680  0.86040  0.37880  1.0000
  H   H60       1.0  0.18320  0.86040  0.12120  1.0000
  H   H61       1.0  0.68320  0.63960  0.62120  1.0000
  H   H62       1.0  0.31680  0.63960  0.87880  1.0000
  H   H63       1.0  0.18320  0.13960  0.62120  1.0000
  H   H64       1.0  0.81680  0.13960  0.87880  1.0000
  C   C33       1.0  0.38270  0.38710  0.47200  1.0000
  C   C34       1.0  0.61730  0.38710  0.02800  1.0000
  C   C35       1.0  0.88270  0.88710  0.47200  1.0000
  C   C36       1.0  0.11730  0.88710  0.02800  1.0000
  C   C37       1.0  0.61730  0.61290  0.52800  1.0000
  C   C38       1.0  0.38270  0.61290  0.97200  1.0000
  C   C39       1.0  0.11730  0.11290  0.52800  1.0000
  C   C40       1.0  0.88270  0.11290  0.97200  1.0000
  H   H65       1.0  0.38140  0.41660  0.57210  1.0000
  H   H66       1.0  0.61860  0.41660  0.92790  1.0000
  H   H67       1.0  0.88140  0.91660  0.57210  1.0000
  H   H68       1.0  0.11860  0.91660  0.92790  1.0000
  H   H69       1.0  0.61860  0.58340  0.42790  1.0000
  H   H70       1.0  0.38140  0.58340  0.07210  1.0000
  H   H71       1.0  0.11860  0.08340  0.42790  1.0000
  H   H72       1.0  0.88140  0.08340  0.07210  1.0000
  H   H73       1.0  0.37240  0.43280  0.39110  1.0000
  H   H74       1.0  0.62760  0.43280  0.10890  1.0000
  H   H75       1.0  0.87240  0.93280  0.39110  1.0000
  H   H76       1.0  0.12760  0.93280  0.10890  1.0000
  H   H77       1.0  0.62760  0.56720  0.60890  1.0000
  H   H78       1.0  0.37240  0.56720  0.89110  1.0000
  H   H79       1.0  0.12760  0.06720  0.60890  1.0000
  H   H80       1.0  0.87240  0.06720  0.89110  1.0000
  C   C41       1.0  0.41973  0.36730  0.46010  1.0000
  C   C42       1.0  0.58027  0.36730  0.03990  1.0000
  C   C43       1.0  0.91973  0.86730  0.46010  1.0000
  C   C44       1.0  0.08027  0.86730  0.03990  1.0000
  C   C45       1.0  0.58027  0.63270  0.53990  1.0000
  C   C46       1.0  0.41973  0.63270  0.96010  1.0000
  C   C47       1.0  0.08027  0.13270  0.53990  1.0000
  C   C48       1.0  0.91973  0.13270  0.96010  1.0000
  H   H81       1.0  0.43020  0.32660  0.54750  1.0000
  H   H82       1.0  0.56980  0.32660  0.95250  1.0000
  H   H83       1.0  0.93020  0.82660  0.54750  1.0000
  H   H84       1.0  0.06980  0.82660  0.95250  1.0000
  H   H85       1.0  0.56980  0.67340  0.45250  1.0000
  H   H86       1.0  0.43020  0.67340  0.04750  1.0000
  H   H87       1.0  0.06980  0.17340  0.45250  1.0000
  H   H88       1.0  0.93020  0.17340  0.04750  1.0000
  H   H89       1.0  0.43250  0.42930  0.46760  1.0000
  H   H90       1.0  0.56750  0.42930  0.03240  1.0000
  H   H91       1.0  0.93250  0.92930  0.46760  1.0000
  H   H92       1.0  0.06750  0.92930  0.03240  1.0000
  H   H93       1.0  0.56750  0.57070  0.53240  1.0000
  H   H94       1.0  0.43250  0.57070  0.96760  1.0000
  H   H95       1.0  0.06750  0.07070  0.53240  1.0000
  H   H96       1.0  0.93250  0.07070  0.96760  1.0000
  C   C49       1.0  0.36446  0.00100  0.00660  1.0000
  C   C50       1.0  0.63554  0.00100  0.49340  1.0000
  C   C51       1.0  0.86446  0.50100  0.00660  1.0000
  C   C52       1.0  0.13554  0.50100  0.49340  1.0000
  C   C53       1.0  0.63554  0.99900  0.99340  1.0000
  C   C54       1.0  0.36446  0.99900  0.50660  1.0000
  C   C55       1.0  0.13554  0.49900  0.99340  1.0000
  C   C56       1.0  0.86446  0.49900  0.50660  1.0000
  C   C57       1.0  0.34311  0.07510  0.89850  1.0000
  C   C58       1.0  0.65689  0.07510  0.60150  1.0000
  C   C59       1.0  0.84311  0.57510  0.89850  1.0000
  C   C60       1.0  0.15689  0.57510  0.60150  1.0000
  C   C61       1.0  0.65689  0.92490  0.10150  1.0000
  C   C62       1.0  0.34311  0.92490  0.39850  1.0000
  C   C63       1.0  0.15689  0.42490  0.10150  1.0000
  C   C64       1.0  0.84311  0.42490  0.39850  1.0000
  H   H97       1.0  0.35780  0.10300  0.82980  1.0000
  H   H98       1.0  0.64220  0.10300  0.67020  1.0000
  H   H99       1.0  0.85780  0.60300  0.82980  1.0000
  H   H100      1.0  0.14220  0.60300  0.67020  1.0000
  H   H101      1.0  0.64220  0.89700  0.17020  1.0000
  H   H102      1.0  0.35780  0.89700  0.32980  1.0000
  H   H103      1.0  0.14220  0.39700  0.17020  1.0000
  H   H104      1.0  0.85780  0.39700  0.32980  1.0000
  H   H105      1.0  0.32340  0.04190  0.83490  1.0000
  H   H106      1.0  0.67660  0.04190  0.66510  1.0000
  H   H107      1.0  0.82340  0.54190  0.83490  1.0000
  H   H108      1.0  0.17660  0.54190  0.66510  1.0000
  H   H109      1.0  0.67660  0.95810  0.16510  1.0000
  H   H110      1.0  0.32340  0.95810  0.33490  1.0000
  H   H111      1.0  0.17660  0.45810  0.16510  1.0000
  H   H112      1.0  0.82340  0.45810  0.33490  1.0000
  C   C65       1.0  0.32729  0.33780  0.00370  1.0000
  C   C66       1.0  0.67271  0.33780  0.49630  1.0000
  C   C67       1.0  0.82729  0.83780  0.00370  1.0000
  C   C68       1.0  0.17271  0.83780  0.49630  1.0000
  C   C69       1.0  0.67271  0.66220  0.99630  1.0000
  C   C70       1.0  0.32729  0.66220  0.50370  1.0000
  C   C71       1.0  0.17271  0.16220  0.99630  1.0000
  C   C72       1.0  0.82729  0.16220  0.50370  1.0000
  C   C73       1.0  0.32440  0.24710  0.89680  1.0000
  C   C74       1.0  0.67560  0.24710  0.60320  1.0000
  C   C75       1.0  0.82440  0.74710  0.89680  1.0000
  C   C76       1.0  0.17560  0.74710  0.60320  1.0000
  C   C77       1.0  0.67560  0.75290  0.10320  1.0000
  C   C78       1.0  0.32440  0.75290  0.39680  1.0000
  C   C79       1.0  0.17560  0.25290  0.10320  1.0000
  C   C80       1.0  0.82440  0.25290  0.39680  1.0000
  H   H113      1.0  0.30130  0.24590  0.83130  1.0000
  H   H114      1.0  0.69870  0.24590  0.66870  1.0000
  H   H115      1.0  0.80130  0.74590  0.83130  1.0000
  H   H116      1.0  0.19870  0.74590  0.66870  1.0000
  H   H117      1.0  0.69870  0.75410  0.16870  1.0000
  H   H118      1.0  0.30130  0.75410  0.33130  1.0000
  H   H119      1.0  0.19870  0.25410  0.16870  1.0000
  H   H120      1.0  0.80130  0.25410  0.33130  1.0000
  H   H121      1.0  0.34190  0.25170  0.82980  1.0000
  H   H122      1.0  0.65810  0.25170  0.67020  1.0000
  H   H123      1.0  0.84190  0.75170  0.82980  1.0000
  H   H124      1.0  0.15810  0.75170  0.67020  1.0000
  H   H125      1.0  0.65810  0.74830  0.17020  1.0000
  H   H126      1.0  0.34190  0.74830  0.32980  1.0000
  H   H127      1.0  0.15810  0.24830  0.17020  1.0000
  H   H128      1.0  0.84190  0.24830  0.32980  1.0000
  C   C81       1.0  0.41591  0.31460  0.02860  1.0000
  C   C82       1.0  0.58409  0.31460  0.47140  1.0000
  C   C83       1.0  0.91591  0.81460  0.02860  1.0000
  C   C84       1.0  0.08409  0.81460  0.47140  1.0000
  C   C85       1.0  0.58409  0.68540  0.97140  1.0000
  C   C86       1.0  0.41591  0.68540  0.52860  1.0000
  C   C87       1.0  0.08409  0.18540  0.97140  1.0000
  C   C88       1.0  0.91591  0.18540  0.52860  1.0000
  C   C89       1.0  0.42086  0.37880  0.17470  1.0000
  C   C90       1.0  0.57914  0.37880  0.32530  1.0000
  C   C91       1.0  0.92086  0.87880  0.17470  1.0000
  C   C92       1.0  0.07914  0.87880  0.32530  1.0000
  C   C93       1.0  0.57914  0.62120  0.82530  1.0000
  C   C94       1.0  0.42086  0.62120  0.67470  1.0000
  C   C95       1.0  0.07914  0.12120  0.82530  1.0000
  C   C96       1.0  0.92086  0.12120  0.67470  1.0000
  H   H129      1.0  0.44190  0.41880  0.17950  1.0000
  H   H130      1.0  0.55810  0.41880  0.32050  1.0000
  H   H131      1.0  0.94190  0.91880  0.17950  1.0000
  H   H132      1.0  0.05810  0.91880  0.32050  1.0000
  H   H133      1.0  0.55810  0.58120  0.82050  1.0000
  H   H134      1.0  0.44190  0.58120  0.67950  1.0000
  H   H135      1.0  0.05810  0.08120  0.82050  1.0000
  H   H136      1.0  0.94190  0.08120  0.67950  1.0000
  H   H137      1.0  0.40080  0.42280  0.17010  1.0000
  H   H138      1.0  0.59920  0.42280  0.32990  1.0000
  H   H139      1.0  0.90080  0.92280  0.17010  1.0000
  H   H140      1.0  0.09920  0.92280  0.32990  1.0000
  H   H141      1.0  0.59920  0.57720  0.82990  1.0000
  H   H142      1.0  0.40080  0.57720  0.67010  1.0000
  H   H143      1.0  0.09920  0.07720  0.82990  1.0000
  H   H144      1.0  0.90080  0.07720  0.67010  1.0000
  C   C97       1.0  0.45984  0.16470  0.37940  1.0000
  C   C98       1.0  0.54016  0.16470  0.12060  1.0000
  C   C99       1.0  0.95984  0.66470  0.37940  1.0000
  C   C100      1.0  0.04016  0.66470  0.12060  1.0000
  C   C101      1.0  0.54016  0.83530  0.62060  1.0000
  C   C102      1.0  0.45984  0.83530  0.87940  1.0000
  C   C103      1.0  0.04016  0.33530  0.62060  1.0000
  C   C104      1.0  0.95984  0.33530  0.87940  1.0000
  C   C105      1.0  0.45968  0.27110  0.33770  1.0000
  C   C106      1.0  0.54032  0.27110  0.16230  1.0000
  C   C107      1.0  0.95968  0.77110  0.33770  1.0000
  C   C108      1.0  0.04032  0.77110  0.16230  1.0000
  C   C109      1.0  0.54032  0.72890  0.66230  1.0000
  C   C110      1.0  0.45968  0.72890  0.83770  1.0000
  C   C111      1.0  0.04032  0.22890  0.66230  1.0000
  C   C112      1.0  0.95968  0.22890  0.83770  1.0000
  H   H145      1.0  0.46930  0.27830  0.24270  1.0000
  H   H146      1.0  0.53070  0.27830  0.25730  1.0000
  H   H147      1.0  0.96930  0.77830  0.24270  1.0000
  H   H148      1.0  0.03070  0.77830  0.25730  1.0000
  H   H149      1.0  0.53070  0.72170  0.75730  1.0000
  H   H150      1.0  0.46930  0.72170  0.74270  1.0000
  H   H151      1.0  0.03070  0.22170  0.75730  1.0000
  H   H152      1.0  0.96930  0.22170  0.74270  1.0000
  H   H153      1.0  0.47510  0.30630  0.41940  1.0000
  H   H154      1.0  0.52490  0.30630  0.08060  1.0000
  H   H155      1.0  0.97510  0.80630  0.41940  1.0000
  H   H156      1.0  0.02490  0.80630  0.08060  1.0000
  H   H157      1.0  0.52490  0.69370  0.58060  1.0000
  H   H158      1.0  0.47510  0.69370  0.91940  1.0000
  H   H159      1.0  0.02490  0.19370  0.58060  1.0000
  H   H160      1.0  0.97510  0.19370  0.91940  1.0000
