data_image0
_chemical_formula_structural       Gd4O40C24H8C16H8C16H8C8H8
_chemical_formula_sum              "Gd4 O40 C64 H32"
_cell_length_a       9.1964
_cell_length_b       13.197
_cell_length_c       14.447
_cell_angle_alpha    90
_cell_angle_beta     90
_cell_angle_gamma    90

_space_group_name_H-M_alt    "P 1"
_space_group_IT_number       1

loop_
  _space_group_symop_operation_xyz
  'x, y, z'

loop_
  _atom_site_type_symbol
  _atom_site_label
  _atom_site_symmetry_multiplicity
  _atom_site_fract_x
  _atom_site_fract_y
  _atom_site_fract_z
  _atom_site_occupancy
  Gd  Gd1       1.0  0.25000  0.00000  0.59592  1.0000
  Gd  Gd2       1.0  0.25000  0.50000  0.90408  1.0000
  Gd  Gd3       1.0  0.75000  0.00000  0.40408  1.0000
  Gd  Gd4       1.0  0.75000  0.50000  0.09592  1.0000
  O   O1        1.0  0.69941  0.39091  0.23110  1.0000
  O   O2        1.0  0.80059  0.60909  0.23110  1.0000
  O   O3        1.0  0.80059  0.89091  0.26890  1.0000
  O   O4        1.0  0.69941  0.10909  0.26890  1.0000
  O   O5        1.0  0.30059  0.60909  0.76890  1.0000
  O   O6        1.0  0.19941  0.39091  0.76890  1.0000
  O   O7        1.0  0.19941  0.10909  0.73110  1.0000
  O   O8        1.0  0.30059  0.89091  0.73110  1.0000
  O   O9        1.0  0.52980  0.50627  0.20757  1.0000
  O   O10       1.0  0.97020  0.49373  0.20757  1.0000
  O   O11       1.0  0.97020  0.00627  0.29243  1.0000
  O   O12       1.0  0.52980  0.99373  0.29243  1.0000
  O   O13       1.0  0.47020  0.49373  0.79243  1.0000
  O   O14       1.0  0.02980  0.50627  0.79243  1.0000
  O   O15       1.0  0.02980  0.99373  0.70757  1.0000
  O   O16       1.0  0.47020  0.00627  0.70757  1.0000
  O   O17       1.0  0.39492  0.14174  0.55953  1.0000
  O   O18       1.0  0.10508  0.85826  0.55953  1.0000
  O   O19       1.0  0.10508  0.64174  0.94047  1.0000
  O   O20       1.0  0.39492  0.35826  0.94047  1.0000
  O   O21       1.0  0.60508  0.85826  0.44047  1.0000
  O   O22       1.0  0.89492  0.14174  0.44047  1.0000
  O   O23       1.0  0.89492  0.35826  0.05953  1.0000
  O   O24       1.0  0.60508  0.64174  0.05953  1.0000
  O   O25       1.0  0.56920  0.11190  0.45720  1.0000
  O   O26       1.0  0.93080  0.88810  0.45720  1.0000
  O   O27       1.0  0.93080  0.61190  0.04280  1.0000
  O   O28       1.0  0.56920  0.38810  0.04280  1.0000
  O   O29       1.0  0.43080  0.88810  0.54280  1.0000
  O   O30       1.0  0.06920  0.11190  0.54280  1.0000
  O   O31       1.0  0.06920  0.38810  0.95720  1.0000
  O   O32       1.0  0.43080  0.61190  0.95720  1.0000
  O   O33       1.0  0.25000  0.50000  0.51370  1.0000
  O   O34       1.0  0.25000  0.00000  0.98630  1.0000
  O   O35       1.0  0.75000  0.50000  0.48630  1.0000
  O   O36       1.0  0.75000  0.00000  0.01370  1.0000
  O   O37       1.0  0.25000  0.00000  0.41660  1.0000
  O   O38       1.0  0.25000  0.50000  0.08340  1.0000
  O   O39       1.0  0.75000  0.00000  0.58340  1.0000
  O   O40       1.0  0.75000  0.50000  0.91660  1.0000
  C   C1        1.0  0.58210  0.43469  0.25455  1.0000
  C   C2        1.0  0.91790  0.56531  0.25455  1.0000
  C   C3        1.0  0.91790  0.93469  0.24545  1.0000
  C   C4        1.0  0.58210  0.06531  0.24545  1.0000
  C   C5        1.0  0.41790  0.56531  0.74545  1.0000
  C   C6        1.0  0.08210  0.43469  0.74545  1.0000
  C   C7        1.0  0.08210  0.06531  0.75455  1.0000
  C   C8        1.0  0.41790  0.93469  0.75455  1.0000
  C   C9        1.0  0.50540  0.40025  0.34047  1.0000
  C   C10       1.0  0.99460  0.59975  0.34047  1.0000
  C   C11       1.0  0.99460  0.90025  0.15953  1.0000
  C   C12       1.0  0.50540  0.09975  0.15953  1.0000
  C   C13       1.0  0.49460  0.59975  0.65953  1.0000
  C   C14       1.0  0.00540  0.40025  0.65953  1.0000
  C   C15       1.0  0.00540  0.09975  0.84047  1.0000
  C   C16       1.0  0.49460  0.90025  0.84047  1.0000
  C   C17       1.0  0.53050  0.30393  0.37660  1.0000
  C   C18       1.0  0.96950  0.69607  0.37660  1.0000
  C   C19       1.0  0.96950  0.80393  0.12340  1.0000
  C   C20       1.0  0.53050  0.19607  0.12340  1.0000
  C   C21       1.0  0.46950  0.69607  0.62340  1.0000
  C   C22       1.0  0.03050  0.30393  0.62340  1.0000
  C   C23       1.0  0.03050  0.19607  0.87660  1.0000
  C   C24       1.0  0.46950  0.80393  0.87660  1.0000
  H   H1        1.0  0.59571  0.26030  0.34771  1.0000
  H   H2        1.0  0.90429  0.73970  0.34771  1.0000
  H   H3        1.0  0.90429  0.76030  0.15229  1.0000
  H   H4        1.0  0.59571  0.23970  0.15229  1.0000
  H   H5        1.0  0.40429  0.73970  0.65229  1.0000
  H   H6        1.0  0.09571  0.26030  0.65229  1.0000
  H   H7        1.0  0.09571  0.23970  0.84771  1.0000
  H   H8        1.0  0.40429  0.76030  0.84771  1.0000
  C   C25       1.0  0.45730  0.27340  0.45635  1.0000
  C   C26       1.0  0.04270  0.72660  0.45635  1.0000
  C   C27       1.0  0.04270  0.77340  0.04365  1.0000
  C   C28       1.0  0.45730  0.22660  0.04365  1.0000
  C   C29       1.0  0.54270  0.72660  0.54365  1.0000
  C   C30       1.0  0.95730  0.27340  0.54365  1.0000
  C   C31       1.0  0.95730  0.22660  0.95635  1.0000
  C   C32       1.0  0.54270  0.77340  0.95635  1.0000
  C   C33       1.0  0.36140  0.33951  0.50006  1.0000
  C   C34       1.0  0.13860  0.66049  0.50006  1.0000
  C   C35       1.0  0.13860  0.83951  0.99994  1.0000
  C   C36       1.0  0.36140  0.16049  0.99994  1.0000
  C   C37       1.0  0.63860  0.66049  0.49994  1.0000
  C   C38       1.0  0.86140  0.33951  0.49994  1.0000
  C   C39       1.0  0.86140  0.16049  0.00006  1.0000
  C   C40       1.0  0.63860  0.83951  0.00006  1.0000
  H   H9        1.0  0.31220  0.31924  0.55318  1.0000
  H   H10       1.0  0.18780  0.68076  0.55318  1.0000
  H   H11       1.0  0.18780  0.81924  0.94682  1.0000
  H   H12       1.0  0.31220  0.18076  0.94682  1.0000
  H   H13       1.0  0.68780  0.68076  0.44682  1.0000
  H   H14       1.0  0.81220  0.31924  0.44682  1.0000
  H   H15       1.0  0.81220  0.18076  0.05318  1.0000
  H   H16       1.0  0.68780  0.81924  0.05318  1.0000
  C   C41       1.0  0.33940  0.43584  0.46400  1.0000
  C   C42       1.0  0.16060  0.56416  0.46400  1.0000
  C   C43       1.0  0.16060  0.93584  0.03600  1.0000
  C   C44       1.0  0.33940  0.06416  0.03600  1.0000
  C   C45       1.0  0.66060  0.56416  0.53600  1.0000
  C   C46       1.0  0.83940  0.43584  0.53600  1.0000
  C   C47       1.0  0.83940  0.06416  0.96400  1.0000
  C   C48       1.0  0.66060  0.93584  0.96400  1.0000
  C   C49       1.0  0.40970  0.46646  0.38393  1.0000
  C   C50       1.0  0.09030  0.53354  0.38393  1.0000
  C   C51       1.0  0.09030  0.96646  0.11607  1.0000
  C   C52       1.0  0.40970  0.03354  0.11607  1.0000
  C   C53       1.0  0.59030  0.53354  0.61607  1.0000
  C   C54       1.0  0.90970  0.46646  0.61607  1.0000
  C   C55       1.0  0.90970  0.03354  0.88393  1.0000
  C   C56       1.0  0.59030  0.96646  0.88393  1.0000
  H   H17       1.0  0.39299  0.53062  0.35951  1.0000
  H   H18       1.0  0.10701  0.46938  0.35951  1.0000
  H   H19       1.0  0.10701  0.03062  0.14049  1.0000
  H   H20       1.0  0.39299  0.96938  0.14049  1.0000
  H   H21       1.0  0.60701  0.46938  0.64049  1.0000
  H   H22       1.0  0.89299  0.53062  0.64049  1.0000
  H   H23       1.0  0.89299  0.96938  0.85951  1.0000
  H   H24       1.0  0.60701  0.03062  0.85951  1.0000
  C   C57       1.0  0.47670  0.16743  0.49368  1.0000
  C   C58       1.0  0.02330  0.83257  0.49368  1.0000
  C   C59       1.0  0.02330  0.66743  0.00632  1.0000
  C   C60       1.0  0.47670  0.33257  0.00632  1.0000
  C   C61       1.0  0.52330  0.83257  0.50632  1.0000
  C   C62       1.0  0.97670  0.16743  0.50632  1.0000
  C   C63       1.0  0.97670  0.33257  0.99368  1.0000
  C   C64       1.0  0.52330  0.66743  0.99368  1.0000
  H   H25       1.0  0.32520  0.99500  0.38280  1.0000
  H   H26       1.0  0.17480  0.00500  0.38280  1.0000
  H   H27       1.0  0.17480  0.49500  0.11720  1.0000
  H   H28       1.0  0.32520  0.50500  0.11720  1.0000
  H   H29       1.0  0.67480  0.00500  0.61720  1.0000
  H   H30       1.0  0.82520  0.99500  0.61720  1.0000
  H   H31       1.0  0.82520  0.50500  0.88280  1.0000
  H   H32       1.0  0.67480  0.49500  0.88280  1.0000
