data_image0
_chemical_formula_structural       Tb4O40C24H8C16H8C16H8C8H8
_chemical_formula_sum              "Tb4 O40 C64 H32"
_cell_length_a       9.1988
_cell_length_b       13.161
_cell_length_c       14.406
_cell_angle_alpha    90
_cell_angle_beta     90
_cell_angle_gamma    90

_space_group_name_H-M_alt    "P 1"
_space_group_IT_number       1

loop_
  _space_group_symop_operation_xyz
  'x, y, z'

loop_
  _atom_site_type_symbol
  _atom_site_label
  _atom_site_symmetry_multiplicity
  _atom_site_fract_x
  _atom_site_fract_y
  _atom_site_fract_z
  _atom_site_occupancy
  Tb  Tb1       1.0  0.25000  0.00000  0.59552  1.0000
  Tb  Tb2       1.0  0.25000  0.50000  0.90448  1.0000
  Tb  Tb3       1.0  0.75000  0.00000  0.40448  1.0000
  Tb  Tb4       1.0  0.75000  0.50000  0.09552  1.0000
  O   O1        1.0  0.69970  0.39098  0.23025  1.0000
  O   O2        1.0  0.80030  0.60902  0.23025  1.0000
  O   O3        1.0  0.80030  0.89098  0.26975  1.0000
  O   O4        1.0  0.69970  0.10902  0.26975  1.0000
  O   O5        1.0  0.30030  0.60902  0.76975  1.0000
  O   O6        1.0  0.19970  0.39098  0.76975  1.0000
  O   O7        1.0  0.19970  0.10902  0.73025  1.0000
  O   O8        1.0  0.30030  0.89098  0.73025  1.0000
  O   O9        1.0  0.53030  0.50695  0.20696  1.0000
  O   O10       1.0  0.96970  0.49305  0.20696  1.0000
  O   O11       1.0  0.96970  0.00695  0.29304  1.0000
  O   O12       1.0  0.53030  0.99305  0.29304  1.0000
  O   O13       1.0  0.46970  0.49305  0.79304  1.0000
  O   O14       1.0  0.03030  0.50695  0.79304  1.0000
  O   O15       1.0  0.03030  0.99305  0.70696  1.0000
  O   O16       1.0  0.46970  0.00695  0.70696  1.0000
  O   O17       1.0  0.39380  0.14073  0.55882  1.0000
  O   O18       1.0  0.10620  0.85927  0.55882  1.0000
  O   O19       1.0  0.10620  0.64073  0.94118  1.0000
  O   O20       1.0  0.39380  0.35927  0.94118  1.0000
  O   O21       1.0  0.60620  0.85927  0.44118  1.0000
  O   O22       1.0  0.89380  0.14073  0.44118  1.0000
  O   O23       1.0  0.89380  0.35927  0.05882  1.0000
  O   O24       1.0  0.60620  0.64073  0.05882  1.0000
  O   O25       1.0  0.56990  0.11119  0.45741  1.0000
  O   O26       1.0  0.93010  0.88881  0.45741  1.0000
  O   O27       1.0  0.93010  0.61119  0.04259  1.0000
  O   O28       1.0  0.56990  0.38881  0.04259  1.0000
  O   O29       1.0  0.43010  0.88881  0.54259  1.0000
  O   O30       1.0  0.06990  0.11119  0.54259  1.0000
  O   O31       1.0  0.06990  0.38881  0.95741  1.0000
  O   O32       1.0  0.43010  0.61119  0.95741  1.0000
  O   O33       1.0  0.25000  0.50000  0.51350  1.0000
  O   O34       1.0  0.25000  0.00000  0.98650  1.0000
  O   O35       1.0  0.75000  0.50000  0.48650  1.0000
  O   O36       1.0  0.75000  0.00000  0.01350  1.0000
  O   O37       1.0  0.25000  0.00000  0.41630  1.0000
  O   O38       1.0  0.25000  0.50000  0.08370  1.0000
  O   O39       1.0  0.75000  0.00000  0.58370  1.0000
  O   O40       1.0  0.75000  0.50000  0.91630  1.0000
  C   C1        1.0  0.58240  0.43512  0.25399  1.0000
  C   C2        1.0  0.91760  0.56488  0.25399  1.0000
  C   C3        1.0  0.91760  0.93512  0.24601  1.0000
  C   C4        1.0  0.58240  0.06488  0.24601  1.0000
  C   C5        1.0  0.41760  0.56488  0.74601  1.0000
  C   C6        1.0  0.08240  0.43512  0.74601  1.0000
  C   C7        1.0  0.08240  0.06488  0.75399  1.0000
  C   C8        1.0  0.41760  0.93512  0.75399  1.0000
  C   C9        1.0  0.50600  0.40057  0.34020  1.0000
  C   C10       1.0  0.99400  0.59943  0.34020  1.0000
  C   C11       1.0  0.99400  0.90057  0.15980  1.0000
  C   C12       1.0  0.50600  0.09943  0.15980  1.0000
  C   C13       1.0  0.49400  0.59943  0.65980  1.0000
  C   C14       1.0  0.00600  0.40057  0.65980  1.0000
  C   C15       1.0  0.00600  0.09943  0.84020  1.0000
  C   C16       1.0  0.49400  0.90057  0.84020  1.0000
  C   C17       1.0  0.53140  0.30384  0.37640  1.0000
  C   C18       1.0  0.96860  0.69616  0.37640  1.0000
  C   C19       1.0  0.96860  0.80384  0.12360  1.0000
  C   C20       1.0  0.53140  0.19616  0.12360  1.0000
  C   C21       1.0  0.46860  0.69616  0.62360  1.0000
  C   C22       1.0  0.03140  0.30384  0.62360  1.0000
  C   C23       1.0  0.03140  0.19616  0.87640  1.0000
  C   C24       1.0  0.46860  0.80384  0.87640  1.0000
  H   H1        1.0  0.59710  0.26033  0.34763  1.0000
  H   H2        1.0  0.90290  0.73967  0.34763  1.0000
  H   H3        1.0  0.90290  0.76033  0.15237  1.0000
  H   H4        1.0  0.59710  0.23967  0.15237  1.0000
  H   H5        1.0  0.40290  0.73967  0.65237  1.0000
  H   H6        1.0  0.09710  0.26033  0.65237  1.0000
  H   H7        1.0  0.09710  0.23967  0.84763  1.0000
  H   H8        1.0  0.40290  0.76033  0.84763  1.0000
  C   C25       1.0  0.45740  0.27293  0.45607  1.0000
  C   C26       1.0  0.04260  0.72707  0.45607  1.0000
  C   C27       1.0  0.04260  0.77293  0.04393  1.0000
  C   C28       1.0  0.45740  0.22707  0.04393  1.0000
  C   C29       1.0  0.54260  0.72707  0.54393  1.0000
  C   C30       1.0  0.95740  0.27293  0.54393  1.0000
  C   C31       1.0  0.95740  0.22707  0.95607  1.0000
  C   C32       1.0  0.54260  0.77293  0.95607  1.0000
  C   C33       1.0  0.36160  0.33932  0.49998  1.0000
  C   C34       1.0  0.13840  0.66068  0.49998  1.0000
  C   C35       1.0  0.13840  0.83932  0.00002  1.0000
  C   C36       1.0  0.36160  0.16068  0.00002  1.0000
  C   C37       1.0  0.63840  0.66068  0.50002  1.0000
  C   C38       1.0  0.86160  0.33932  0.50002  1.0000
  C   C39       1.0  0.86160  0.16068  0.99998  1.0000
  C   C40       1.0  0.63840  0.83932  0.99998  1.0000
  H   H9        1.0  0.31260  0.31910  0.55335  1.0000
  H   H10       1.0  0.18740  0.68090  0.55335  1.0000
  H   H11       1.0  0.18740  0.81910  0.94665  1.0000
  H   H12       1.0  0.31260  0.18090  0.94665  1.0000
  H   H13       1.0  0.68740  0.68090  0.44665  1.0000
  H   H14       1.0  0.81260  0.31910  0.44665  1.0000
  H   H15       1.0  0.81260  0.18090  0.05335  1.0000
  H   H16       1.0  0.68740  0.81910  0.05335  1.0000
  C   C41       1.0  0.33960  0.43572  0.46371  1.0000
  C   C42       1.0  0.16040  0.56428  0.46371  1.0000
  C   C43       1.0  0.16040  0.93572  0.03629  1.0000
  C   C44       1.0  0.33960  0.06428  0.03629  1.0000
  C   C45       1.0  0.66040  0.56428  0.53629  1.0000
  C   C46       1.0  0.83960  0.43572  0.53629  1.0000
  C   C47       1.0  0.83960  0.06428  0.96371  1.0000
  C   C48       1.0  0.66040  0.93572  0.96371  1.0000
  C   C49       1.0  0.41010  0.46675  0.38363  1.0000
  C   C50       1.0  0.08990  0.53325  0.38363  1.0000
  C   C51       1.0  0.08990  0.96675  0.11637  1.0000
  C   C52       1.0  0.41010  0.03325  0.11637  1.0000
  C   C53       1.0  0.58990  0.53325  0.61637  1.0000
  C   C54       1.0  0.91010  0.46675  0.61637  1.0000
  C   C55       1.0  0.91010  0.03325  0.88363  1.0000
  C   C56       1.0  0.58990  0.96675  0.88363  1.0000
  H   H17       1.0  0.39340  0.53113  0.35925  1.0000
  H   H18       1.0  0.10660  0.46887  0.35925  1.0000
  H   H19       1.0  0.10660  0.03113  0.14075  1.0000
  H   H20       1.0  0.39340  0.96887  0.14075  1.0000
  H   H21       1.0  0.60660  0.46887  0.64075  1.0000
  H   H22       1.0  0.89340  0.53113  0.64075  1.0000
  H   H23       1.0  0.89340  0.96887  0.85925  1.0000
  H   H24       1.0  0.60660  0.03113  0.85925  1.0000
  C   C57       1.0  0.47670  0.16687  0.49328  1.0000
  C   C58       1.0  0.02330  0.83313  0.49328  1.0000
  C   C59       1.0  0.02330  0.66687  0.00672  1.0000
  C   C60       1.0  0.47670  0.33313  0.00672  1.0000
  C   C61       1.0  0.52330  0.83313  0.50672  1.0000
  C   C62       1.0  0.97670  0.16687  0.50672  1.0000
  C   C63       1.0  0.97670  0.33313  0.99328  1.0000
  C   C64       1.0  0.52330  0.66687  0.99328  1.0000
  H   H25       1.0  0.32500  0.99400  0.38240  1.0000
  H   H26       1.0  0.17500  0.00600  0.38240  1.0000
  H   H27       1.0  0.17500  0.49400  0.11760  1.0000
  H   H28       1.0  0.32500  0.50600  0.11760  1.0000
  H   H29       1.0  0.67500  0.00600  0.61760  1.0000
  H   H30       1.0  0.82500  0.99400  0.61760  1.0000
  H   H31       1.0  0.82500  0.50600  0.88240  1.0000
  H   H32       1.0  0.67500  0.49400  0.88240  1.0000
