data_image0
_chemical_formula_structural       Cu2N8C24H8
_chemical_formula_sum              "Cu2 N8 C24 H8"
_cell_length_a       7.4611
_cell_length_b       7.4611
_cell_length_c       21.7122
_cell_angle_alpha    90
_cell_angle_beta     90
_cell_angle_gamma    90

_space_group_name_H-M_alt    "P 1"
_space_group_IT_number       1

loop_
  _space_group_symop_operation_xyz
  'x, y, z'

loop_
  _atom_site_type_symbol
  _atom_site_label
  _atom_site_symmetry_multiplicity
  _atom_site_fract_x
  _atom_site_fract_y
  _atom_site_fract_z
  _atom_site_occupancy
  Cu  Cu1       1.0  0.50000  0.50000  0.25000  1.0000
  Cu  Cu2       1.0  0.50000  0.50000  0.75000  1.0000
  N   N1        1.0  0.28730  0.50000  0.19567  1.0000
  N   N2        1.0  0.50000  0.28730  0.69567  1.0000
  N   N3        1.0  0.71270  0.50000  0.19567  1.0000
  N   N4        1.0  0.50000  0.71270  0.69567  1.0000
  N   N5        1.0  0.28730  0.50000  0.80433  1.0000
  N   N6        1.0  0.50000  0.28730  0.30433  1.0000
  N   N7        1.0  0.71270  0.50000  0.80433  1.0000
  N   N8        1.0  0.50000  0.71270  0.30433  1.0000
  C   C1        1.0  0.15780  0.50000  0.16665  1.0000
  C   C2        1.0  0.50000  0.15780  0.66665  1.0000
  C   C3        1.0  0.84220  0.50000  0.16665  1.0000
  C   C4        1.0  0.50000  0.84220  0.66665  1.0000
  C   C5        1.0  0.15780  0.50000  0.83335  1.0000
  C   C6        1.0  0.50000  0.15780  0.33335  1.0000
  C   C7        1.0  0.84220  0.50000  0.83335  1.0000
  C   C8        1.0  0.50000  0.84220  0.33335  1.0000
  C   C9        1.0  0.00000  0.50000  0.13370  1.0000
  C   C10       1.0  0.50000  0.00000  0.63370  1.0000
  C   C11       1.0  0.00000  0.50000  0.86630  1.0000
  C   C12       1.0  0.50000  0.00000  0.36630  1.0000
  C   C13       1.0  0.00000  0.50000  0.06610  1.0000
  C   C14       1.0  0.50000  0.00000  0.56610  1.0000
  C   C15       1.0  0.00000  0.50000  0.93390  1.0000
  C   C16       1.0  0.50000  0.00000  0.43390  1.0000
  C   C17       1.0  0.15830  0.50000  0.03180  1.0000
  C   C18       1.0  0.50000  0.15830  0.53180  1.0000
  C   C19       1.0  0.84170  0.50000  0.03180  1.0000
  C   C20       1.0  0.50000  0.84170  0.53180  1.0000
  C   C21       1.0  0.15830  0.50000  0.96820  1.0000
  C   C22       1.0  0.50000  0.15830  0.46820  1.0000
  C   C23       1.0  0.84170  0.50000  0.96820  1.0000
  C   C24       1.0  0.50000  0.84170  0.46820  1.0000
  H   H1        1.0  0.26740  0.50000  0.05250  1.0000
  H   H2        1.0  0.50000  0.26740  0.55250  1.0000
  H   H3        1.0  0.73260  0.50000  0.05250  1.0000
  H   H4        1.0  0.50000  0.73260  0.55250  1.0000
  H   H5        1.0  0.26740  0.50000  0.94750  1.0000
  H   H6        1.0  0.50000  0.26740  0.44750  1.0000
  H   H7        1.0  0.73260  0.50000  0.94750  1.0000
  H   H8        1.0  0.50000  0.73260  0.44750  1.0000
