data_image0
_chemical_formula_structural       Zn18O90N54C54H18C18H18C72H18C18H18C18H18C18H18C18
_chemical_formula_sum              "Zn18 O90 N54 C216 H108"
_cell_length_a       27.0865
_cell_length_b       27.0865
_cell_length_c       11.2171
_cell_angle_alpha    90
_cell_angle_beta     90
_cell_angle_gamma    120

_space_group_name_H-M_alt    "P 1"
_space_group_IT_number       1

loop_
  _space_group_symop_operation_xyz
  'x, y, z'

loop_
  _atom_site_type_symbol
  _atom_site_label
  _atom_site_symmetry_multiplicity
  _atom_site_fract_x
  _atom_site_fract_y
  _atom_site_fract_z
  _atom_site_occupancy
  Zn  Zn1       1.0  0.91536  0.46853  0.23741  1.0000
  Zn  Zn2       1.0  0.53147  0.44683  0.23741  1.0000
  Zn  Zn3       1.0  0.55317  0.08464  0.23741  1.0000
  Zn  Zn4       1.0  0.53147  0.08464  0.73741  1.0000
  Zn  Zn5       1.0  0.91536  0.44683  0.73741  1.0000
  Zn  Zn6       1.0  0.55317  0.46853  0.73741  1.0000
  Zn  Zn7       1.0  0.58203  0.80186  0.57074  1.0000
  Zn  Zn8       1.0  0.19814  0.78016  0.57074  1.0000
  Zn  Zn9       1.0  0.21984  0.41797  0.57074  1.0000
  Zn  Zn10      1.0  0.19814  0.41797  0.07074  1.0000
  Zn  Zn11      1.0  0.58203  0.78016  0.07074  1.0000
  Zn  Zn12      1.0  0.21984  0.80186  0.07074  1.0000
  Zn  Zn13      1.0  0.24869  0.13520  0.90408  1.0000
  Zn  Zn14      1.0  0.86480  0.11350  0.90408  1.0000
  Zn  Zn15      1.0  0.88650  0.75131  0.90408  1.0000
  Zn  Zn16      1.0  0.86480  0.75131  0.40408  1.0000
  Zn  Zn17      1.0  0.24869  0.11350  0.40408  1.0000
  Zn  Zn18      1.0  0.88650  0.13520  0.40408  1.0000
  O   O1        1.0  0.98409  0.45863  0.26140  1.0000
  O   O2        1.0  0.54137  0.52546  0.26140  1.0000
  O   O3        1.0  0.47454  0.01591  0.26140  1.0000
  O   O4        1.0  0.54137  0.01591  0.76140  1.0000
  O   O5        1.0  0.98409  0.52546  0.76140  1.0000
  O   O6        1.0  0.47454  0.45863  0.76140  1.0000
  O   O7        1.0  0.65076  0.79196  0.59473  1.0000
  O   O8        1.0  0.20804  0.85879  0.59473  1.0000
  O   O9        1.0  0.14121  0.34924  0.59473  1.0000
  O   O10       1.0  0.20804  0.34924  0.09473  1.0000
  O   O11       1.0  0.65076  0.85879  0.09473  1.0000
  O   O12       1.0  0.14121  0.79196  0.09473  1.0000
  O   O13       1.0  0.31742  0.12530  0.92807  1.0000
  O   O14       1.0  0.87470  0.19213  0.92807  1.0000
  O   O15       1.0  0.80787  0.68258  0.92807  1.0000
  O   O16       1.0  0.87470  0.68258  0.42807  1.0000
  O   O17       1.0  0.31742  0.19213  0.42807  1.0000
  O   O18       1.0  0.80787  0.12530  0.42807  1.0000
  O   O19       1.0  0.90830  0.37234  0.27460  1.0000
  O   O20       1.0  0.62766  0.53596  0.27460  1.0000
  O   O21       1.0  0.46404  0.09170  0.27460  1.0000
  O   O22       1.0  0.62766  0.09170  0.77460  1.0000
  O   O23       1.0  0.90830  0.53596  0.77460  1.0000
  O   O24       1.0  0.46404  0.37234  0.77460  1.0000
  O   O25       1.0  0.57497  0.70567  0.60793  1.0000
  O   O26       1.0  0.29433  0.86929  0.60793  1.0000
  O   O27       1.0  0.13071  0.42503  0.60793  1.0000
  O   O28       1.0  0.29433  0.42503  0.10793  1.0000
  O   O29       1.0  0.57497  0.86929  0.10793  1.0000
  O   O30       1.0  0.13071  0.70567  0.10793  1.0000
  O   O31       1.0  0.24163  0.03901  0.94127  1.0000
  O   O32       1.0  0.96099  0.20263  0.94127  1.0000
  O   O33       1.0  0.79737  0.75837  0.94127  1.0000
  O   O34       1.0  0.96099  0.75837  0.44127  1.0000
  O   O35       1.0  0.24163  0.20263  0.44127  1.0000
  O   O36       1.0  0.79737  0.03901  0.44127  1.0000
  O   O37       1.0  0.96863  0.32366  0.32030  1.0000
  O   O38       1.0  0.67634  0.64497  0.32030  1.0000
  O   O39       1.0  0.35503  0.03137  0.32030  1.0000
  O   O40       1.0  0.67634  0.03137  0.82030  1.0000
  O   O41       1.0  0.96863  0.64497  0.82030  1.0000
  O   O42       1.0  0.35503  0.32366  0.82030  1.0000
  O   O43       1.0  0.63530  0.65699  0.65363  1.0000
  O   O44       1.0  0.34301  0.97830  0.65363  1.0000
  O   O45       1.0  0.02170  0.36470  0.65363  1.0000
  O   O46       1.0  0.34301  0.36470  0.15363  1.0000
  O   O47       1.0  0.63530  0.97830  0.15363  1.0000
  O   O48       1.0  0.02170  0.65699  0.15363  1.0000
  O   O49       1.0  0.30196  0.99033  0.98697  1.0000
  O   O50       1.0  0.00967  0.31164  0.98697  1.0000
  O   O51       1.0  0.68836  0.69804  0.98697  1.0000
  O   O52       1.0  0.00967  0.69804  0.48697  1.0000
  O   O53       1.0  0.30196  0.31164  0.48697  1.0000
  O   O54       1.0  0.68836  0.99033  0.48697  1.0000
  O   O55       1.0  0.92727  0.21766  0.36870  1.0000
  O   O56       1.0  0.78234  0.70961  0.36870  1.0000
  O   O57       1.0  0.29039  0.07273  0.36870  1.0000
  O   O58       1.0  0.78234  0.07273  0.86870  1.0000
  O   O59       1.0  0.92727  0.70961  0.86870  1.0000
  O   O60       1.0  0.29039  0.21766  0.86870  1.0000
  O   O61       1.0  0.59394  0.55099  0.70203  1.0000
  O   O62       1.0  0.44901  0.04294  0.70203  1.0000
  O   O63       1.0  0.95706  0.40606  0.70203  1.0000
  O   O64       1.0  0.44901  0.40606  0.20203  1.0000
  O   O65       1.0  0.59394  0.04294  0.20203  1.0000
  O   O66       1.0  0.95706  0.55099  0.20203  1.0000
  O   O67       1.0  0.26060  0.88433  0.03537  1.0000
  O   O68       1.0  0.11567  0.37628  0.03537  1.0000
  O   O69       1.0  0.62372  0.73940  0.03537  1.0000
  O   O70       1.0  0.11567  0.73940  0.53537  1.0000
  O   O71       1.0  0.26060  0.37628  0.53537  1.0000
  O   O72       1.0  0.62372  0.88433  0.53537  1.0000
  O   O73       1.0  0.01254  0.22288  0.36650  1.0000
  O   O74       1.0  0.77712  0.78966  0.36650  1.0000
  O   O75       1.0  0.21034  0.98746  0.36650  1.0000
  O   O76       1.0  0.77712  0.98746  0.86650  1.0000
  O   O77       1.0  0.01254  0.78966  0.86650  1.0000
  O   O78       1.0  0.21034  0.22288  0.86650  1.0000
  O   O79       1.0  0.67921  0.55621  0.69983  1.0000
  O   O80       1.0  0.44379  0.12299  0.69983  1.0000
  O   O81       1.0  0.87701  0.32079  0.69983  1.0000
  O   O82       1.0  0.44379  0.32079  0.19983  1.0000
  O   O83       1.0  0.67921  0.12299  0.19983  1.0000
  O   O84       1.0  0.87701  0.55621  0.19983  1.0000
  O   O85       1.0  0.34587  0.88955  0.03317  1.0000
  O   O86       1.0  0.11045  0.45633  0.03317  1.0000
  O   O87       1.0  0.54367  0.65413  0.03317  1.0000
  O   O88       1.0  0.11045  0.65413  0.53317  1.0000
  O   O89       1.0  0.34587  0.45633  0.53317  1.0000
  O   O90       1.0  0.54367  0.88955  0.53317  1.0000
  N   N1        1.0  0.87638  0.45555  0.39440  1.0000
  N   N2        1.0  0.54445  0.42083  0.39440  1.0000
  N   N3        1.0  0.57917  0.12362  0.39440  1.0000
  N   N4        1.0  0.54445  0.12362  0.89440  1.0000
  N   N5        1.0  0.87638  0.42083  0.89440  1.0000
  N   N6        1.0  0.57917  0.45555  0.89440  1.0000
  N   N7        1.0  0.54305  0.78888  0.72773  1.0000
  N   N8        1.0  0.21112  0.75416  0.72773  1.0000
  N   N9        1.0  0.24584  0.45695  0.72773  1.0000
  N   N10       1.0  0.21112  0.45695  0.22773  1.0000
  N   N11       1.0  0.54305  0.75416  0.22773  1.0000
  N   N12       1.0  0.24584  0.78888  0.22773  1.0000
  N   N13       1.0  0.20971  0.12222  0.06107  1.0000
  N   N14       1.0  0.87778  0.08750  0.06107  1.0000
  N   N15       1.0  0.91250  0.79029  0.06107  1.0000
  N   N16       1.0  0.87778  0.79029  0.56107  1.0000
  N   N17       1.0  0.20971  0.08750  0.56107  1.0000
  N   N18       1.0  0.91250  0.12222  0.56107  1.0000
  N   N19       1.0  0.90589  0.45480  0.48730  1.0000
  N   N20       1.0  0.54520  0.45109  0.48730  1.0000
  N   N21       1.0  0.54891  0.09411  0.48730  1.0000
  N   N22       1.0  0.54520  0.09411  0.98730  1.0000
  N   N23       1.0  0.90589  0.45109  0.98730  1.0000
  N   N24       1.0  0.54891  0.45480  0.98730  1.0000
  N   N25       1.0  0.57256  0.78813  0.82063  1.0000
  N   N26       1.0  0.21187  0.78442  0.82063  1.0000
  N   N27       1.0  0.21558  0.42744  0.82063  1.0000
  N   N28       1.0  0.21187  0.42744  0.32063  1.0000
  N   N29       1.0  0.57256  0.78442  0.32063  1.0000
  N   N30       1.0  0.21558  0.78813  0.32063  1.0000
  N   N31       1.0  0.23922  0.12147  0.15397  1.0000
  N   N32       1.0  0.87853  0.11776  0.15397  1.0000
  N   N33       1.0  0.88224  0.76078  0.15397  1.0000
  N   N34       1.0  0.87853  0.76078  0.65397  1.0000
  N   N35       1.0  0.23922  0.11776  0.65397  1.0000
  N   N36       1.0  0.88224  0.12147  0.65397  1.0000
  N   N37       1.0  0.87557  0.44405  0.58570  1.0000
  N   N38       1.0  0.55595  0.43152  0.58570  1.0000
  N   N39       1.0  0.56848  0.12443  0.58570  1.0000
  N   N40       1.0  0.55595  0.12443  0.08570  1.0000
  N   N41       1.0  0.87557  0.43152  0.08570  1.0000
  N   N42       1.0  0.56848  0.44405  0.08570  1.0000
  N   N43       1.0  0.54224  0.77738  0.91903  1.0000
  N   N44       1.0  0.22262  0.76485  0.91903  1.0000
  N   N45       1.0  0.23515  0.45776  0.91903  1.0000
  N   N46       1.0  0.22262  0.45776  0.41903  1.0000
  N   N47       1.0  0.54224  0.76485  0.41903  1.0000
  N   N48       1.0  0.23515  0.77738  0.41903  1.0000
  N   N49       1.0  0.20890  0.11072  0.25237  1.0000
  N   N50       1.0  0.88928  0.09819  0.25237  1.0000
  N   N51       1.0  0.90181  0.79110  0.25237  1.0000
  N   N52       1.0  0.88928  0.79110  0.75237  1.0000
  N   N53       1.0  0.20890  0.09819  0.75237  1.0000
  N   N54       1.0  0.90181  0.11072  0.75237  1.0000
  C   C1        1.0  0.96050  0.40520  0.27840  1.0000
  C   C2        1.0  0.59480  0.55530  0.27840  1.0000
  C   C3        1.0  0.44470  0.03950  0.27840  1.0000
  C   C4        1.0  0.59480  0.03950  0.77840  1.0000
  C   C5        1.0  0.96050  0.55530  0.77840  1.0000
  C   C6        1.0  0.44470  0.40520  0.77840  1.0000
  C   C7        1.0  0.62717  0.73853  0.61173  1.0000
  C   C8        1.0  0.26147  0.88863  0.61173  1.0000
  C   C9        1.0  0.11137  0.37283  0.61173  1.0000
  C   C10       1.0  0.26147  0.37283  0.11173  1.0000
  C   C11       1.0  0.62717  0.88863  0.11173  1.0000
  C   C12       1.0  0.11137  0.73853  0.11173  1.0000
  C   C13       1.0  0.29383  0.07187  0.94507  1.0000
  C   C14       1.0  0.92813  0.22197  0.94507  1.0000
  C   C15       1.0  0.77803  0.70617  0.94507  1.0000
  C   C16       1.0  0.92813  0.70617  0.44507  1.0000
  C   C17       1.0  0.29383  0.22197  0.44507  1.0000
  C   C18       1.0  0.77803  0.07187  0.44507  1.0000
  C   C19       1.0  0.99830  0.38121  0.30270  1.0000
  C   C20       1.0  0.61879  0.61709  0.30270  1.0000
  C   C21       1.0  0.38291  0.00170  0.30270  1.0000
  C   C22       1.0  0.61879  0.00170  0.80270  1.0000
  C   C23       1.0  0.99830  0.61709  0.80270  1.0000
  C   C24       1.0  0.38291  0.38121  0.80270  1.0000
  C   C25       1.0  0.66497  0.71454  0.63603  1.0000
  C   C26       1.0  0.28546  0.95042  0.63603  1.0000
  C   C27       1.0  0.04958  0.33503  0.63603  1.0000
  C   C28       1.0  0.28546  0.33503  0.13603  1.0000
  C   C29       1.0  0.66497  0.95042  0.13603  1.0000
  C   C30       1.0  0.04958  0.71454  0.13603  1.0000
  C   C31       1.0  0.33163  0.04788  0.96937  1.0000
  C   C32       1.0  0.95212  0.28376  0.96937  1.0000
  C   C33       1.0  0.71624  0.66837  0.96937  1.0000
  C   C34       1.0  0.95212  0.66837  0.46937  1.0000
  C   C35       1.0  0.33163  0.28376  0.46937  1.0000
  C   C36       1.0  0.71624  0.04788  0.46937  1.0000
  C   C37       1.0  0.05490  0.39990  0.30560  1.0000
  C   C38       1.0  0.60010  0.65500  0.30560  1.0000
  C   C39       1.0  0.34500  0.94510  0.30560  1.0000
  C   C40       1.0  0.60010  0.94510  0.80560  1.0000
  C   C41       1.0  0.05490  0.65500  0.80560  1.0000
  C   C42       1.0  0.34500  0.39990  0.80560  1.0000
  C   C43       1.0  0.72157  0.73323  0.63893  1.0000
  C   C44       1.0  0.26677  0.98833  0.63893  1.0000
  C   C45       1.0  0.01167  0.27843  0.63893  1.0000
  C   C46       1.0  0.26677  0.27843  0.13893  1.0000
  C   C47       1.0  0.72157  0.98833  0.13893  1.0000
  C   C48       1.0  0.01167  0.73323  0.13893  1.0000
  C   C49       1.0  0.38823  0.06657  0.97227  1.0000
  C   C50       1.0  0.93343  0.32167  0.97227  1.0000
  C   C51       1.0  0.67833  0.61177  0.97227  1.0000
  C   C52       1.0  0.93343  0.61177  0.47227  1.0000
  C   C53       1.0  0.38823  0.32167  0.47227  1.0000
  C   C54       1.0  0.67833  0.06657  0.47227  1.0000
  H   H1        1.0  0.08490  0.43810  0.29600  1.0000
  H   H2        1.0  0.56190  0.64680  0.29600  1.0000
  H   H3        1.0  0.35320  0.91510  0.29600  1.0000
  H   H4        1.0  0.56190  0.91510  0.79600  1.0000
  H   H5        1.0  0.08490  0.64680  0.79600  1.0000
  H   H6        1.0  0.35320  0.43810  0.79600  1.0000
  H   H7        1.0  0.75157  0.77143  0.62933  1.0000
  H   H8        1.0  0.22857  0.98013  0.62933  1.0000
  H   H9        1.0  0.01987  0.24843  0.62933  1.0000
  H   H10       1.0  0.22857  0.24843  0.12933  1.0000
  H   H11       1.0  0.75157  0.98013  0.12933  1.0000
  H   H12       1.0  0.01987  0.77143  0.12933  1.0000
  H   H13       1.0  0.41823  0.10477  0.96267  1.0000
  H   H14       1.0  0.89523  0.31347  0.96267  1.0000
  H   H15       1.0  0.68653  0.58177  0.96267  1.0000
  H   H16       1.0  0.89523  0.58177  0.46267  1.0000
  H   H17       1.0  0.41823  0.31347  0.46267  1.0000
  H   H18       1.0  0.68653  0.10477  0.46267  1.0000
  C   C55       1.0  0.06060  0.35120  0.32570  1.0000
  C   C56       1.0  0.64880  0.70940  0.32570  1.0000
  C   C57       1.0  0.29060  0.93940  0.32570  1.0000
  C   C58       1.0  0.64880  0.93940  0.82570  1.0000
  C   C59       1.0  0.06060  0.70940  0.82570  1.0000
  C   C60       1.0  0.29060  0.35120  0.82570  1.0000
  C   C61       1.0  0.72727  0.68453  0.65903  1.0000
  C   C62       1.0  0.31547  0.04273  0.65903  1.0000
  C   C63       1.0  0.95727  0.27273  0.65903  1.0000
  C   C64       1.0  0.31547  0.27273  0.15903  1.0000
  C   C65       1.0  0.72727  0.04273  0.15903  1.0000
  C   C66       1.0  0.95727  0.68453  0.15903  1.0000
  C   C67       1.0  0.39393  0.01787  0.99237  1.0000
  C   C68       1.0  0.98213  0.37607  0.99237  1.0000
  C   C69       1.0  0.62393  0.60607  0.99237  1.0000
  C   C70       1.0  0.98213  0.60607  0.49237  1.0000
  C   C71       1.0  0.39393  0.37607  0.49237  1.0000
  C   C72       1.0  0.62393  0.01787  0.49237  1.0000
  H   H19       1.0  0.09520  0.35060  0.33170  1.0000
  H   H20       1.0  0.64940  0.74460  0.33170  1.0000
  H   H21       1.0  0.25540  0.90480  0.33170  1.0000
  H   H22       1.0  0.64940  0.90480  0.83170  1.0000
  H   H23       1.0  0.09520  0.74460  0.83170  1.0000
  H   H24       1.0  0.25540  0.35060  0.83170  1.0000
  H   H25       1.0  0.76187  0.68393  0.66503  1.0000
  H   H26       1.0  0.31607  0.07793  0.66503  1.0000
  H   H27       1.0  0.92207  0.23813  0.66503  1.0000
  H   H28       1.0  0.31607  0.23813  0.16503  1.0000
  H   H29       1.0  0.76187  0.07793  0.16503  1.0000
  H   H30       1.0  0.92207  0.68393  0.16503  1.0000
  H   H31       1.0  0.42853  0.01727  0.99837  1.0000
  H   H32       1.0  0.98273  0.41127  0.99837  1.0000
  H   H33       1.0  0.58873  0.57147  0.99837  1.0000
  H   H34       1.0  0.98273  0.57147  0.49837  1.0000
  H   H35       1.0  0.42853  0.41127  0.49837  1.0000
  H   H36       1.0  0.58873  0.01727  0.49837  1.0000
  C   C73       1.0  0.00720  0.30600  0.33460  1.0000
  C   C74       1.0  0.69400  0.70120  0.33460  1.0000
  C   C75       1.0  0.29880  0.99280  0.33460  1.0000
  C   C76       1.0  0.69400  0.99280  0.83460  1.0000
  C   C77       1.0  0.00720  0.70120  0.83460  1.0000
  C   C78       1.0  0.29880  0.30600  0.83460  1.0000
  C   C79       1.0  0.67387  0.63933  0.66793  1.0000
  C   C80       1.0  0.36067  0.03453  0.66793  1.0000
  C   C81       1.0  0.96547  0.32613  0.66793  1.0000
  C   C82       1.0  0.36067  0.32613  0.16793  1.0000
  C   C83       1.0  0.67387  0.03453  0.16793  1.0000
  C   C84       1.0  0.96547  0.63933  0.16793  1.0000
  C   C85       1.0  0.34053  0.97267  0.00127  1.0000
  C   C86       1.0  0.02733  0.36787  0.00127  1.0000
  C   C87       1.0  0.63213  0.65947  0.00127  1.0000
  C   C88       1.0  0.02733  0.65947  0.50127  1.0000
  C   C89       1.0  0.34053  0.36787  0.50127  1.0000
  C   C90       1.0  0.63213  0.97267  0.50127  1.0000
  C   C91       1.0  0.98217  0.24390  0.35740  1.0000
  C   C92       1.0  0.75610  0.73827  0.35740  1.0000
  C   C93       1.0  0.26173  0.01783  0.35740  1.0000
  C   C94       1.0  0.75610  0.01783  0.85740  1.0000
  C   C95       1.0  0.98217  0.73827  0.85740  1.0000
  C   C96       1.0  0.26173  0.24390  0.85740  1.0000
  C   C97       1.0  0.64884  0.57723  0.69073  1.0000
  C   C98       1.0  0.42277  0.07160  0.69073  1.0000
  C   C99       1.0  0.92840  0.35116  0.69073  1.0000
  C   C100      1.0  0.42277  0.35116  0.19073  1.0000
  C   C101      1.0  0.64884  0.07160  0.19073  1.0000
  C   C102      1.0  0.92840  0.57723  0.19073  1.0000
  C   C103      1.0  0.31550  0.91057  0.02407  1.0000
  C   C104      1.0  0.08943  0.40494  0.02407  1.0000
  C   C105      1.0  0.59506  0.68450  0.02407  1.0000
  C   C106      1.0  0.08943  0.68450  0.52407  1.0000
  C   C107      1.0  0.31550  0.40494  0.52407  1.0000
  C   C108      1.0  0.59506  0.91057  0.52407  1.0000
  C   C109      1.0  0.82450  0.44546  0.43380  1.0000
  C   C110      1.0  0.55454  0.37904  0.43380  1.0000
  C   C111      1.0  0.62096  0.17550  0.43380  1.0000
  C   C112      1.0  0.55454  0.17550  0.93380  1.0000
  C   C113      1.0  0.82450  0.37904  0.93380  1.0000
  C   C114      1.0  0.62096  0.44546  0.93380  1.0000
  C   C115      1.0  0.49117  0.77879  0.76713  1.0000
  C   C116      1.0  0.22121  0.71237  0.76713  1.0000
  C   C117      1.0  0.28763  0.50883  0.76713  1.0000
  C   C118      1.0  0.22121  0.50883  0.26713  1.0000
  C   C119      1.0  0.49117  0.71237  0.26713  1.0000
  C   C120      1.0  0.28763  0.77879  0.26713  1.0000
  C   C121      1.0  0.15783  0.11213  0.10047  1.0000
  C   C122      1.0  0.88787  0.04571  0.10047  1.0000
  C   C123      1.0  0.95429  0.84217  0.10047  1.0000
  C   C124      1.0  0.88787  0.84217  0.60047  1.0000
  C   C125      1.0  0.15783  0.04571  0.60047  1.0000
  C   C126      1.0  0.95429  0.11213  0.60047  1.0000
  C   C127      1.0  0.77700  0.44140  0.37430  1.0000
  C   C128      1.0  0.55860  0.33560  0.37430  1.0000
  C   C129      1.0  0.66440  0.22300  0.37430  1.0000
  C   C130      1.0  0.55860  0.22300  0.87430  1.0000
  C   C131      1.0  0.77700  0.33560  0.87430  1.0000
  C   C132      1.0  0.66440  0.44140  0.87430  1.0000
  C   C133      1.0  0.44367  0.77473  0.70763  1.0000
  C   C134      1.0  0.22527  0.66893  0.70763  1.0000
  C   C135      1.0  0.33107  0.55633  0.70763  1.0000
  C   C136      1.0  0.22527  0.55633  0.20763  1.0000
  C   C137      1.0  0.44367  0.66893  0.20763  1.0000
  C   C138      1.0  0.33107  0.77473  0.20763  1.0000
  C   C139      1.0  0.11033  0.10807  0.04097  1.0000
  C   C140      1.0  0.89193  0.00227  0.04097  1.0000
  C   C141      1.0  0.99773  0.88967  0.04097  1.0000
  C   C142      1.0  0.89193  0.88967  0.54097  1.0000
  C   C143      1.0  0.11033  0.00227  0.54097  1.0000
  C   C144      1.0  0.99773  0.10807  0.54097  1.0000
  H   H37       1.0  0.77730  0.44710  0.29070  1.0000
  H   H38       1.0  0.55290  0.33020  0.29070  1.0000
  H   H39       1.0  0.66980  0.22270  0.29070  1.0000
  H   H40       1.0  0.55290  0.22270  0.79070  1.0000
  H   H41       1.0  0.77730  0.33020  0.79070  1.0000
  H   H42       1.0  0.66980  0.44710  0.79070  1.0000
  H   H43       1.0  0.44397  0.78043  0.62403  1.0000
  H   H44       1.0  0.21957  0.66353  0.62403  1.0000
  H   H45       1.0  0.33647  0.55603  0.62403  1.0000
  H   H46       1.0  0.21957  0.55603  0.12403  1.0000
  H   H47       1.0  0.44397  0.66353  0.12403  1.0000
  H   H48       1.0  0.33647  0.78043  0.12403  1.0000
  H   H49       1.0  0.11063  0.11377  0.95737  1.0000
  H   H50       1.0  0.88623  0.99687  0.95737  1.0000
  H   H51       1.0  0.00313  0.88937  0.95737  1.0000
  H   H52       1.0  0.88623  0.88937  0.45737  1.0000
  H   H53       1.0  0.11063  0.99687  0.45737  1.0000
  H   H54       1.0  0.00313  0.11377  0.45737  1.0000
  C   C145      1.0  0.73050  0.42890  0.44220  1.0000
  C   C146      1.0  0.57110  0.30160  0.44220  1.0000
  C   C147      1.0  0.69840  0.26950  0.44220  1.0000
  C   C148      1.0  0.57110  0.26950  0.94220  1.0000
  C   C149      1.0  0.73050  0.30160  0.94220  1.0000
  C   C150      1.0  0.69840  0.42890  0.94220  1.0000
  C   C151      1.0  0.39717  0.76223  0.77553  1.0000
  C   C152      1.0  0.23777  0.63493  0.77553  1.0000
  C   C153      1.0  0.36507  0.60283  0.77553  1.0000
  C   C154      1.0  0.23777  0.60283  0.27553  1.0000
  C   C155      1.0  0.39717  0.63493  0.27553  1.0000
  C   C156      1.0  0.36507  0.76223  0.27553  1.0000
  C   C157      1.0  0.06383  0.09557  0.10887  1.0000
  C   C158      1.0  0.90443  0.96827  0.10887  1.0000
  C   C159      1.0  0.03173  0.93617  0.10887  1.0000
  C   C160      1.0  0.90443  0.93617  0.60887  1.0000
  C   C161      1.0  0.06383  0.96827  0.60887  1.0000
  C   C162      1.0  0.03173  0.09557  0.60887  1.0000
  H   H55       1.0  0.69710  0.42450  0.40430  1.0000
  H   H56       1.0  0.57550  0.27260  0.40430  1.0000
  H   H57       1.0  0.72740  0.30290  0.40430  1.0000
  H   H58       1.0  0.57550  0.30290  0.90430  1.0000
  H   H59       1.0  0.69710  0.27260  0.90430  1.0000
  H   H60       1.0  0.72740  0.42450  0.90430  1.0000
  H   H61       1.0  0.36377  0.75783  0.73763  1.0000
  H   H62       1.0  0.24217  0.60593  0.73763  1.0000
  H   H63       1.0  0.39407  0.63623  0.73763  1.0000
  H   H64       1.0  0.24217  0.63623  0.23763  1.0000
  H   H65       1.0  0.36377  0.60593  0.23763  1.0000
  H   H66       1.0  0.39407  0.75783  0.23763  1.0000
  H   H67       1.0  0.03043  0.09117  0.07097  1.0000
  H   H68       1.0  0.90883  0.93927  0.07097  1.0000
  H   H69       1.0  0.06073  0.96957  0.07097  1.0000
  H   H70       1.0  0.90883  0.96957  0.57097  1.0000
  H   H71       1.0  0.03043  0.93927  0.57097  1.0000
  H   H72       1.0  0.06073  0.09117  0.57097  1.0000
  C   C163      1.0  0.73030  0.42220  0.56720  1.0000
  C   C164      1.0  0.57780  0.30810  0.56720  1.0000
  C   C165      1.0  0.69190  0.26970  0.56720  1.0000
  C   C166      1.0  0.57780  0.26970  0.06720  1.0000
  C   C167      1.0  0.73030  0.30810  0.06720  1.0000
  C   C168      1.0  0.69190  0.42220  0.06720  1.0000
  C   C169      1.0  0.39697  0.75553  0.90053  1.0000
  C   C170      1.0  0.24447  0.64143  0.90053  1.0000
  C   C171      1.0  0.35857  0.60303  0.90053  1.0000
  C   C172      1.0  0.24447  0.60303  0.40053  1.0000
  C   C173      1.0  0.39697  0.64143  0.40053  1.0000
  C   C174      1.0  0.35857  0.75553  0.40053  1.0000
  C   C175      1.0  0.06363  0.08887  0.23387  1.0000
  C   C176      1.0  0.91113  0.97477  0.23387  1.0000
  C   C177      1.0  0.02523  0.93637  0.23387  1.0000
  C   C178      1.0  0.91113  0.93637  0.73387  1.0000
  C   C179      1.0  0.06363  0.97477  0.73387  1.0000
  C   C180      1.0  0.02523  0.08887  0.73387  1.0000
  H   H73       1.0  0.69690  0.41340  0.61120  1.0000
  H   H74       1.0  0.58660  0.28350  0.61120  1.0000
  H   H75       1.0  0.71650  0.30310  0.61120  1.0000
  H   H76       1.0  0.58660  0.30310  0.11120  1.0000
  H   H77       1.0  0.69690  0.28350  0.11120  1.0000
  H   H78       1.0  0.71650  0.41340  0.11120  1.0000
  H   H79       1.0  0.36357  0.74673  0.94453  1.0000
  H   H80       1.0  0.25327  0.61683  0.94453  1.0000
  H   H81       1.0  0.38317  0.63643  0.94453  1.0000
  H   H82       1.0  0.25327  0.63643  0.44453  1.0000
  H   H83       1.0  0.36357  0.61683  0.44453  1.0000
  H   H84       1.0  0.38317  0.74673  0.44453  1.0000
  H   H85       1.0  0.03023  0.08007  0.27787  1.0000
  H   H86       1.0  0.91993  0.95017  0.27787  1.0000
  H   H87       1.0  0.04983  0.96977  0.27787  1.0000
  H   H88       1.0  0.91993  0.96977  0.77787  1.0000
  H   H89       1.0  0.03023  0.95017  0.77787  1.0000
  H   H90       1.0  0.04983  0.08007  0.77787  1.0000
  C   C181      1.0  0.77720  0.42820  0.62610  1.0000
  C   C182      1.0  0.57180  0.34900  0.62610  1.0000
  C   C183      1.0  0.65100  0.22280  0.62610  1.0000
  C   C184      1.0  0.57180  0.22280  0.12610  1.0000
  C   C185      1.0  0.77720  0.34900  0.12610  1.0000
  C   C186      1.0  0.65100  0.42820  0.12610  1.0000
  C   C187      1.0  0.44387  0.76153  0.95943  1.0000
  C   C188      1.0  0.23847  0.68233  0.95943  1.0000
  C   C189      1.0  0.31767  0.55613  0.95943  1.0000
  C   C190      1.0  0.23847  0.55613  0.45943  1.0000
  C   C191      1.0  0.44387  0.68233  0.45943  1.0000
  C   C192      1.0  0.31767  0.76153  0.45943  1.0000
  C   C193      1.0  0.11053  0.09487  0.29277  1.0000
  C   C194      1.0  0.90513  0.01567  0.29277  1.0000
  C   C195      1.0  0.98433  0.88947  0.29277  1.0000
  C   C196      1.0  0.90513  0.88947  0.79277  1.0000
  C   C197      1.0  0.11053  0.01567  0.79277  1.0000
  C   C198      1.0  0.98433  0.09487  0.79277  1.0000
  H   H91       1.0  0.77760  0.42530  0.71050  1.0000
  H   H92       1.0  0.57470  0.35230  0.71050  1.0000
  H   H93       1.0  0.64770  0.22240  0.71050  1.0000
  H   H94       1.0  0.57470  0.22240  0.21050  1.0000
  H   H95       1.0  0.77760  0.35230  0.21050  1.0000
  H   H96       1.0  0.64770  0.42530  0.21050  1.0000
  H   H97       1.0  0.44427  0.75863  0.04383  1.0000
  H   H98       1.0  0.24137  0.68563  0.04383  1.0000
  H   H99       1.0  0.31437  0.55573  0.04383  1.0000
  H   H100      1.0  0.24137  0.55573  0.54383  1.0000
  H   H101      1.0  0.44427  0.68563  0.54383  1.0000
  H   H102      1.0  0.31437  0.75863  0.54383  1.0000
  H   H103      1.0  0.11093  0.09197  0.37717  1.0000
  H   H104      1.0  0.90803  0.01897  0.37717  1.0000
  H   H105      1.0  0.98103  0.88907  0.37717  1.0000
  H   H106      1.0  0.90803  0.88907  0.87717  1.0000
  H   H107      1.0  0.11093  0.01897  0.87717  1.0000
  H   H108      1.0  0.98103  0.09197  0.87717  1.0000
  C   C199      1.0  0.82418  0.43888  0.55710  1.0000
  C   C200      1.0  0.56112  0.38530  0.55710  1.0000
  C   C201      1.0  0.61470  0.17582  0.55710  1.0000
  C   C202      1.0  0.56112  0.17582  0.05710  1.0000
  C   C203      1.0  0.82418  0.38530  0.05710  1.0000
  C   C204      1.0  0.61470  0.43888  0.05710  1.0000
  C   C205      1.0  0.49085  0.77221  0.89043  1.0000
  C   C206      1.0  0.22779  0.71863  0.89043  1.0000
  C   C207      1.0  0.28137  0.50915  0.89043  1.0000
  C   C208      1.0  0.22779  0.50915  0.39043  1.0000
  C   C209      1.0  0.49085  0.71863  0.39043  1.0000
  C   C210      1.0  0.28137  0.77221  0.39043  1.0000
  C   C211      1.0  0.15751  0.10555  0.22377  1.0000
  C   C212      1.0  0.89445  0.05197  0.22377  1.0000
  C   C213      1.0  0.94803  0.84249  0.22377  1.0000
  C   C214      1.0  0.89445  0.84249  0.72377  1.0000
  C   C215      1.0  0.15751  0.05197  0.72377  1.0000
  C   C216      1.0  0.94803  0.10555  0.72377  1.0000
