data_image0
_chemical_formula_structural       Cd4O24C8H4C8H4C8H4C12
_chemical_formula_sum              "Cd4 O24 C36 H12"
_cell_length_a       10.0583
_cell_length_b       14.4667
_cell_length_c       13.6582
_cell_angle_alpha    90
_cell_angle_beta     117.923
_cell_angle_gamma    90

_space_group_name_H-M_alt    "P 1"
_space_group_IT_number       1

loop_
  _space_group_symop_operation_xyz
  'x, y, z'

loop_
  _atom_site_type_symbol
  _atom_site_label
  _atom_site_symmetry_multiplicity
  _atom_site_fract_x
  _atom_site_fract_y
  _atom_site_fract_z
  _atom_site_occupancy
  Cd  Cd1       1.0  0.15153  0.43327  0.56141  1.0000
  Cd  Cd2       1.0  0.84847  0.93327  0.93859  1.0000
  Cd  Cd3       1.0  0.84847  0.56673  0.43859  1.0000
  Cd  Cd4       1.0  0.15153  0.06673  0.06141  1.0000
  O   O1        1.0  0.03150  0.36090  0.63890  1.0000
  O   O2        1.0  0.96850  0.86090  0.86110  1.0000
  O   O3        1.0  0.96850  0.63910  0.36110  1.0000
  O   O4        1.0  0.03150  0.13910  0.13890  1.0000
  O   O5        1.0  0.83560  0.45700  0.55520  1.0000
  O   O6        1.0  0.16440  0.95700  0.94480  1.0000
  O   O7        1.0  0.16440  0.54300  0.44480  1.0000
  O   O8        1.0  0.83560  0.04300  0.05520  1.0000
  O   O9        1.0  0.37050  0.40160  0.56640  1.0000
  O   O10       1.0  0.62950  0.90160  0.93360  1.0000
  O   O11       1.0  0.62950  0.59840  0.43360  1.0000
  O   O12       1.0  0.37050  0.09840  0.06640  1.0000
  O   O13       1.0  0.33810  0.27970  0.64610  1.0000
  O   O14       1.0  0.66190  0.77970  0.85390  1.0000
  O   O15       1.0  0.66190  0.72030  0.35390  1.0000
  O   O16       1.0  0.33810  0.22030  0.14610  1.0000
  O   O17       1.0  0.77530  0.05340  0.82370  1.0000
  O   O18       1.0  0.22470  0.55340  0.67630  1.0000
  O   O19       1.0  0.22470  0.94660  0.17630  1.0000
  O   O20       1.0  0.77530  0.44660  0.32370  1.0000
  O   O21       1.0  0.99630  0.12940  0.89650  1.0000
  O   O22       1.0  0.00370  0.62940  0.60350  1.0000
  O   O23       1.0  0.00370  0.87060  0.10350  1.0000
  O   O24       1.0  0.99630  0.37060  0.39650  1.0000
  C   C1        1.0  0.80870  0.32900  0.64910  1.0000
  C   C2        1.0  0.19130  0.82900  0.85090  1.0000
  C   C3        1.0  0.19130  0.67100  0.35090  1.0000
  C   C4        1.0  0.80870  0.17100  0.14910  1.0000
  C   C5        1.0  0.65920  0.35060  0.61520  1.0000
  C   C6        1.0  0.34080  0.85060  0.88480  1.0000
  C   C7        1.0  0.34080  0.64940  0.38480  1.0000
  C   C8        1.0  0.65920  0.14940  0.11520  1.0000
  H   H1        1.0  0.61600  0.40160  0.56980  1.0000
  H   H2        1.0  0.38400  0.90160  0.93020  1.0000
  H   H3        1.0  0.38400  0.59840  0.43020  1.0000
  H   H4        1.0  0.61600  0.09840  0.06980  1.0000
  C   C9        1.0  0.57360  0.29670  0.64850  1.0000
  C   C10       1.0  0.42640  0.79670  0.85150  1.0000
  C   C11       1.0  0.42640  0.70330  0.35150  1.0000
  C   C12       1.0  0.57360  0.20330  0.14850  1.0000
  C   C13       1.0  0.63730  0.21980  0.71420  1.0000
  C   C14       1.0  0.36270  0.71980  0.78580  1.0000
  C   C15       1.0  0.36270  0.78020  0.28580  1.0000
  C   C16       1.0  0.63730  0.28020  0.21420  1.0000
  H   H5        1.0  0.57890  0.18220  0.73420  1.0000
  H   H6        1.0  0.42110  0.68220  0.76580  1.0000
  H   H7        1.0  0.42110  0.81780  0.26580  1.0000
  H   H8        1.0  0.57890  0.31780  0.23420  1.0000
  C   C17       1.0  0.78710  0.19840  0.75050  1.0000
  C   C18       1.0  0.21290  0.69840  0.74950  1.0000
  C   C19       1.0  0.21290  0.80160  0.24950  1.0000
  C   C20       1.0  0.78710  0.30160  0.25050  1.0000
  C   C21       1.0  0.87260  0.25350  0.71810  1.0000
  C   C22       1.0  0.12740  0.75350  0.78190  1.0000
  C   C23       1.0  0.12740  0.74650  0.28190  1.0000
  C   C24       1.0  0.87260  0.24650  0.21810  1.0000
  H   H9        1.0  0.97360  0.23970  0.74280  1.0000
  H   H10       1.0  0.02640  0.73970  0.75720  1.0000
  H   H11       1.0  0.02640  0.76030  0.25720  1.0000
  H   H12       1.0  0.97360  0.26030  0.24280  1.0000
  C   C25       1.0  0.89960  0.38740  0.61190  1.0000
  C   C26       1.0  0.10040  0.88740  0.88810  1.0000
  C   C27       1.0  0.10040  0.61260  0.38810  1.0000
  C   C28       1.0  0.89960  0.11260  0.11190  1.0000
  C   C29       1.0  0.41600  0.32570  0.61830  1.0000
  C   C30       1.0  0.58400  0.82570  0.88170  1.0000
  C   C31       1.0  0.58400  0.67430  0.38170  1.0000
  C   C32       1.0  0.41600  0.17430  0.11830  1.0000
  C   C33       1.0  0.85930  0.11970  0.82980  1.0000
  C   C34       1.0  0.14070  0.61970  0.67020  1.0000
  C   C35       1.0  0.14070  0.88030  0.17020  1.0000
  C   C36       1.0  0.85930  0.38030  0.32980  1.0000
