data_image0
_chemical_formula_structural       Gd32Mn32C384H384O480
_chemical_formula_sum              "Gd32 Mn32 C384 H384 O480"
_cell_length_a       26.1065
_cell_length_b       26.1065
_cell_length_c       26.1065
_cell_angle_alpha    90
_cell_angle_beta     90
_cell_angle_gamma    90

_space_group_name_H-M_alt    "P 1"
_space_group_IT_number       1

loop_
  _space_group_symop_operation_xyz
  'x, y, z'

loop_
  _atom_site_type_symbol
  _atom_site_label
  _atom_site_symmetry_multiplicity
  _atom_site_fract_x
  _atom_site_fract_y
  _atom_site_fract_z
  _atom_site_occupancy
  Gd  Gd1       1.0  0.00000  0.00000  0.25000  1.0000
  Gd  Gd2       1.0  0.25000  0.75000  0.75000  1.0000
  Gd  Gd3       1.0  0.75000  0.50000  0.00000  1.0000
  Gd  Gd4       1.0  0.50000  0.25000  0.50000  1.0000
  Gd  Gd5       1.0  0.25000  0.00000  0.00000  1.0000
  Gd  Gd6       1.0  0.75000  0.25000  0.75000  1.0000
  Gd  Gd7       1.0  0.00000  0.75000  0.50000  1.0000
  Gd  Gd8       1.0  0.50000  0.50000  0.25000  1.0000
  Gd  Gd9       1.0  0.00000  0.25000  0.00000  1.0000
  Gd  Gd10      1.0  0.75000  0.75000  0.25000  1.0000
  Gd  Gd11      1.0  0.50000  0.00000  0.75000  1.0000
  Gd  Gd12      1.0  0.25000  0.50000  0.50000  1.0000
  Gd  Gd13      1.0  0.00000  0.50000  0.75000  1.0000
  Gd  Gd14      1.0  0.25000  0.25000  0.25000  1.0000
  Gd  Gd15      1.0  0.75000  0.00000  0.50000  1.0000
  Gd  Gd16      1.0  0.50000  0.75000  0.00000  1.0000
  Gd  Gd17      1.0  0.00000  0.00000  0.75000  1.0000
  Gd  Gd18      1.0  0.75000  0.25000  0.25000  1.0000
  Gd  Gd19      1.0  0.25000  0.50000  0.00000  1.0000
  Gd  Gd20      1.0  0.50000  0.75000  0.50000  1.0000
  Gd  Gd21      1.0  0.75000  0.00000  0.00000  1.0000
  Gd  Gd22      1.0  0.25000  0.75000  0.25000  1.0000
  Gd  Gd23      1.0  0.00000  0.25000  0.50000  1.0000
  Gd  Gd24      1.0  0.50000  0.50000  0.75000  1.0000
  Gd  Gd25      1.0  0.00000  0.75000  0.00000  1.0000
  Gd  Gd26      1.0  0.25000  0.25000  0.75000  1.0000
  Gd  Gd27      1.0  0.50000  0.00000  0.25000  1.0000
  Gd  Gd28      1.0  0.75000  0.50000  0.50000  1.0000
  Gd  Gd29      1.0  0.00000  0.50000  0.25000  1.0000
  Gd  Gd30      1.0  0.75000  0.75000  0.75000  1.0000
  Gd  Gd31      1.0  0.25000  0.00000  0.50000  1.0000
  Gd  Gd32      1.0  0.50000  0.25000  0.00000  1.0000
  Mn  Mn1       1.0  0.00000  0.75000  0.25000  1.0000
  Mn  Mn2       1.0  0.25000  1.00000  0.75000  1.0000
  Mn  Mn3       1.0  0.75000  0.25000  0.00000  1.0000
  Mn  Mn4       1.0  0.50000  0.50000  0.50000  1.0000
  Mn  Mn5       1.0  0.50000  0.25000  0.75000  1.0000
  Mn  Mn6       1.0  0.75000  0.50000  0.25000  1.0000
  Mn  Mn7       1.0  0.00000  0.00000  0.00000  1.0000
  Mn  Mn8       1.0  0.25000  0.75000  0.50000  1.0000
  Mn  Mn9       1.0  0.00000  0.25000  0.75000  1.0000
  Mn  Mn10      1.0  0.25000  0.50000  0.25000  1.0000
  Mn  Mn11      1.0  0.75000  0.75000  0.50000  1.0000
  Mn  Mn12      1.0  0.50000  1.00000  0.00000  1.0000
  Mn  Mn13      1.0  0.50000  0.75000  0.25000  1.0000
  Mn  Mn14      1.0  0.75000  0.00000  0.75000  1.0000
  Mn  Mn15      1.0  0.00000  0.50000  0.50000  1.0000
  Mn  Mn16      1.0  0.25000  0.25000  0.00000  1.0000
  Mn  Mn17      1.0  0.50000  0.75000  0.75000  1.0000
  Mn  Mn18      1.0  0.75000  1.00000  0.25000  1.0000
  Mn  Mn19      1.0  0.25000  0.25000  0.50000  1.0000
  Mn  Mn20      1.0  0.00000  0.50000  0.00000  1.0000
  Mn  Mn21      1.0  0.00000  0.25000  0.25000  1.0000
  Mn  Mn22      1.0  0.25000  0.50000  0.75000  1.0000
  Mn  Mn23      1.0  0.50000  0.00000  0.50000  1.0000
  Mn  Mn24      1.0  0.75000  0.75000  0.00000  1.0000
  Mn  Mn25      1.0  0.50000  0.25000  0.25000  1.0000
  Mn  Mn26      1.0  0.75000  0.50000  0.75000  1.0000
  Mn  Mn27      1.0  0.25000  0.75000  0.00000  1.0000
  Mn  Mn28      1.0  0.00000  1.00000  0.50000  1.0000
  Mn  Mn29      1.0  0.00000  0.75000  0.75000  1.0000
  Mn  Mn30      1.0  0.25000  0.00000  0.25000  1.0000
  Mn  Mn31      1.0  0.50000  0.50000  0.00000  1.0000
  Mn  Mn32      1.0  0.75000  0.25000  0.50000  1.0000
  C   C1        1.0  0.00920  0.87450  0.25270  1.0000
  C   C2        1.0  0.24080  0.87550  0.75270  1.0000
  C   C3        1.0  0.74080  0.37450  0.99730  1.0000
  C   C4        1.0  0.50920  0.37550  0.49730  1.0000
  C   C5        1.0  0.25270  0.00920  0.87450  1.0000
  C   C6        1.0  0.75270  0.24080  0.87550  1.0000
  C   C7        1.0  0.99730  0.74080  0.37450  1.0000
  C   C8        1.0  0.49730  0.50920  0.37550  1.0000
  C   C9        1.0  0.87450  0.25270  0.00920  1.0000
  C   C10       1.0  0.87550  0.75270  0.24080  1.0000
  C   C11       1.0  0.37450  0.99730  0.74080  1.0000
  C   C12       1.0  0.37550  0.49730  0.50920  1.0000
  C   C13       1.0  0.62450  0.25920  0.74730  1.0000
  C   C14       1.0  0.62550  0.49080  0.24730  1.0000
  C   C15       1.0  0.12450  0.99080  0.00270  1.0000
  C   C16       1.0  0.12550  0.75920  0.50270  1.0000
  C   C17       1.0  0.75920  0.50270  0.12550  1.0000
  C   C18       1.0  0.99080  0.00270  0.12450  1.0000
  C   C19       1.0  0.49080  0.24730  0.62550  1.0000
  C   C20       1.0  0.25920  0.74730  0.62450  1.0000
  C   C21       1.0  0.00270  0.12450  0.99080  1.0000
  C   C22       1.0  0.50270  0.12550  0.75920  1.0000
  C   C23       1.0  0.74730  0.62450  0.25920  1.0000
  C   C24       1.0  0.24730  0.62550  0.49080  1.0000
  C   C25       1.0  0.00920  0.37450  0.75270  1.0000
  C   C26       1.0  0.24080  0.37550  0.25270  1.0000
  C   C27       1.0  0.74080  0.87450  0.49730  1.0000
  C   C28       1.0  0.50920  0.87550  0.99730  1.0000
  C   C29       1.0  0.25270  0.50920  0.37450  1.0000
  C   C30       1.0  0.75270  0.74080  0.37550  1.0000
  C   C31       1.0  0.99730  0.24080  0.87450  1.0000
  C   C32       1.0  0.49730  0.00920  0.87550  1.0000
  C   C33       1.0  0.87450  0.75270  0.50920  1.0000
  C   C34       1.0  0.87550  0.25270  0.74080  1.0000
  C   C35       1.0  0.37450  0.49730  0.24080  1.0000
  C   C36       1.0  0.37550  0.99730  0.00920  1.0000
  C   C37       1.0  0.62450  0.75920  0.24730  1.0000
  C   C38       1.0  0.62550  0.99080  0.74730  1.0000
  C   C39       1.0  0.12450  0.49080  0.50270  1.0000
  C   C40       1.0  0.12550  0.25920  0.00270  1.0000
  C   C41       1.0  0.75920  0.00270  0.62550  1.0000
  C   C42       1.0  0.99080  0.50270  0.62450  1.0000
  C   C43       1.0  0.49080  0.74730  0.12550  1.0000
  C   C44       1.0  0.25920  0.24730  0.12450  1.0000
  C   C45       1.0  0.00270  0.62450  0.49080  1.0000
  C   C46       1.0  0.50270  0.62550  0.25920  1.0000
  C   C47       1.0  0.74730  0.12450  0.75920  1.0000
  C   C48       1.0  0.24730  0.12550  0.99080  1.0000
  C   C49       1.0  0.50920  0.87450  0.75270  1.0000
  C   C50       1.0  0.74080  0.87550  0.25270  1.0000
  C   C51       1.0  0.24080  0.37450  0.49730  1.0000
  C   C52       1.0  0.00920  0.37550  0.99730  1.0000
  C   C53       1.0  0.75270  0.00920  0.37450  1.0000
  C   C54       1.0  0.25270  0.24080  0.37550  1.0000
  C   C55       1.0  0.49730  0.74080  0.87450  1.0000
  C   C56       1.0  0.99730  0.50920  0.87550  1.0000
  C   C57       1.0  0.37450  0.25270  0.50920  1.0000
  C   C58       1.0  0.37550  0.75270  0.74080  1.0000
  C   C59       1.0  0.87450  0.99730  0.24080  1.0000
  C   C60       1.0  0.87550  0.49730  0.00920  1.0000
  C   C61       1.0  0.12450  0.25920  0.24730  1.0000
  C   C62       1.0  0.12550  0.49080  0.74730  1.0000
  C   C63       1.0  0.62450  0.99080  0.50270  1.0000
  C   C64       1.0  0.62550  0.75920  0.00270  1.0000
  C   C65       1.0  0.25920  0.50270  0.62550  1.0000
  C   C66       1.0  0.49080  0.00270  0.62450  1.0000
  C   C67       1.0  0.99080  0.24730  0.12550  1.0000
  C   C68       1.0  0.75920  0.74730  0.12450  1.0000
  C   C69       1.0  0.50270  0.12450  0.49080  1.0000
  C   C70       1.0  0.00270  0.12550  0.25920  1.0000
  C   C71       1.0  0.24730  0.62450  0.75920  1.0000
  C   C72       1.0  0.74730  0.62550  0.99080  1.0000
  C   C73       1.0  0.50920  0.37450  0.25270  1.0000
  C   C74       1.0  0.74080  0.37550  0.75270  1.0000
  C   C75       1.0  0.24080  0.87450  0.99730  1.0000
  C   C76       1.0  0.00920  0.87550  0.49730  1.0000
  C   C77       1.0  0.75270  0.50920  0.87450  1.0000
  C   C78       1.0  0.25270  0.74080  0.87550  1.0000
  C   C79       1.0  0.49730  0.24080  0.37450  1.0000
  C   C80       1.0  0.99730  0.00920  0.37550  1.0000
  C   C81       1.0  0.37450  0.75270  0.00920  1.0000
  C   C82       1.0  0.37550  0.25270  0.24080  1.0000
  C   C83       1.0  0.87450  0.49730  0.74080  1.0000
  C   C84       1.0  0.87550  0.99730  0.50920  1.0000
  C   C85       1.0  0.12450  0.75920  0.74730  1.0000
  C   C86       1.0  0.12550  0.99080  0.24730  1.0000
  C   C87       1.0  0.62450  0.49080  0.00270  1.0000
  C   C88       1.0  0.62550  0.25920  0.50270  1.0000
  C   C89       1.0  0.25920  0.00270  0.12550  1.0000
  C   C90       1.0  0.49080  0.50270  0.12450  1.0000
  C   C91       1.0  0.99080  0.74730  0.62550  1.0000
  C   C92       1.0  0.75920  0.24730  0.62450  1.0000
  C   C93       1.0  0.50270  0.62450  0.99080  1.0000
  C   C94       1.0  0.00270  0.62550  0.75920  1.0000
  C   C95       1.0  0.24730  0.12450  0.25920  1.0000
  C   C96       1.0  0.74730  0.12550  0.49080  1.0000
  C   C97       1.0  0.99080  0.12550  0.74730  1.0000
  C   C98       1.0  0.75920  0.12450  0.24730  1.0000
  C   C99       1.0  0.25920  0.62550  0.00270  1.0000
  C   C100      1.0  0.49080  0.62450  0.50270  1.0000
  C   C101      1.0  0.74730  0.99080  0.12550  1.0000
  C   C102      1.0  0.24730  0.75920  0.12450  1.0000
  C   C103      1.0  0.00270  0.25920  0.62550  1.0000
  C   C104      1.0  0.50270  0.49080  0.62450  1.0000
  C   C105      1.0  0.12550  0.74730  0.99080  1.0000
  C   C106      1.0  0.12450  0.24730  0.75920  1.0000
  C   C107      1.0  0.62550  0.00270  0.25920  1.0000
  C   C108      1.0  0.62450  0.50270  0.49080  1.0000
  C   C109      1.0  0.37550  0.74080  0.25270  1.0000
  C   C110      1.0  0.37450  0.50920  0.75270  1.0000
  C   C111      1.0  0.87550  0.00920  0.99730  1.0000
  C   C112      1.0  0.87450  0.24080  0.49730  1.0000
  C   C113      1.0  0.24080  0.49730  0.87450  1.0000
  C   C114      1.0  0.00920  0.99730  0.87550  1.0000
  C   C115      1.0  0.50920  0.75270  0.37450  1.0000
  C   C116      1.0  0.74080  0.25270  0.37550  1.0000
  C   C117      1.0  0.99730  0.87550  0.00920  1.0000
  C   C118      1.0  0.49730  0.87450  0.24080  1.0000
  C   C119      1.0  0.25270  0.37550  0.74080  1.0000
  C   C120      1.0  0.75270  0.37450  0.50920  1.0000
  C   C121      1.0  0.99080  0.62550  0.24730  1.0000
  C   C122      1.0  0.75920  0.62450  0.74730  1.0000
  C   C123      1.0  0.25920  0.12550  0.50270  1.0000
  C   C124      1.0  0.49080  0.12450  0.00270  1.0000
  C   C125      1.0  0.74730  0.49080  0.62550  1.0000
  C   C126      1.0  0.24730  0.25920  0.62450  1.0000
  C   C127      1.0  0.00270  0.75920  0.12550  1.0000
  C   C128      1.0  0.50270  0.99080  0.12450  1.0000
  C   C129      1.0  0.12550  0.24730  0.49080  1.0000
  C   C130      1.0  0.12450  0.74730  0.25920  1.0000
  C   C131      1.0  0.62550  0.50270  0.75920  1.0000
  C   C132      1.0  0.62450  0.00270  0.99080  1.0000
  C   C133      1.0  0.37550  0.24080  0.75270  1.0000
  C   C134      1.0  0.37450  0.00920  0.25270  1.0000
  C   C135      1.0  0.87550  0.50920  0.49730  1.0000
  C   C136      1.0  0.87450  0.74080  0.99730  1.0000
  C   C137      1.0  0.24080  0.99730  0.37450  1.0000
  C   C138      1.0  0.00920  0.49730  0.37550  1.0000
  C   C139      1.0  0.50920  0.25270  0.87450  1.0000
  C   C140      1.0  0.74080  0.75270  0.87550  1.0000
  C   C141      1.0  0.99730  0.37550  0.50920  1.0000
  C   C142      1.0  0.49730  0.37450  0.74080  1.0000
  C   C143      1.0  0.25270  0.87550  0.24080  1.0000
  C   C144      1.0  0.75270  0.87450  0.00920  1.0000
  C   C145      1.0  0.49080  0.12550  0.24730  1.0000
  C   C146      1.0  0.25920  0.12450  0.74730  1.0000
  C   C147      1.0  0.75920  0.62550  0.50270  1.0000
  C   C148      1.0  0.99080  0.62450  0.00270  1.0000
  C   C149      1.0  0.24730  0.99080  0.62550  1.0000
  C   C150      1.0  0.74730  0.75920  0.62450  1.0000
  C   C151      1.0  0.50270  0.25920  0.12550  1.0000
  C   C152      1.0  0.00270  0.49080  0.12450  1.0000
  C   C153      1.0  0.62550  0.74730  0.49080  1.0000
  C   C154      1.0  0.62450  0.24730  0.25920  1.0000
  C   C155      1.0  0.12550  0.00270  0.75920  1.0000
  C   C156      1.0  0.12450  0.50270  0.99080  1.0000
  C   C157      1.0  0.87550  0.74080  0.75270  1.0000
  C   C158      1.0  0.87450  0.50920  0.25270  1.0000
  C   C159      1.0  0.37550  0.00920  0.49730  1.0000
  C   C160      1.0  0.37450  0.24080  0.99730  1.0000
  C   C161      1.0  0.74080  0.49730  0.37450  1.0000
  C   C162      1.0  0.50920  0.99730  0.37550  1.0000
  C   C163      1.0  0.00920  0.75270  0.87450  1.0000
  C   C164      1.0  0.24080  0.25270  0.87550  1.0000
  C   C165      1.0  0.49730  0.87550  0.50920  1.0000
  C   C166      1.0  0.99730  0.87450  0.74080  1.0000
  C   C167      1.0  0.75270  0.37550  0.24080  1.0000
  C   C168      1.0  0.25270  0.37450  0.00920  1.0000
  C   C169      1.0  0.49080  0.62550  0.74730  1.0000
  C   C170      1.0  0.25920  0.62450  0.24730  1.0000
  C   C171      1.0  0.75920  0.12550  0.00270  1.0000
  C   C172      1.0  0.99080  0.12450  0.50270  1.0000
  C   C173      1.0  0.24730  0.49080  0.12550  1.0000
  C   C174      1.0  0.74730  0.25920  0.12450  1.0000
  C   C175      1.0  0.50270  0.75920  0.62550  1.0000
  C   C176      1.0  0.00270  0.99080  0.62450  1.0000
  C   C177      1.0  0.62550  0.24730  0.99080  1.0000
  C   C178      1.0  0.62450  0.74730  0.75920  1.0000
  C   C179      1.0  0.12550  0.50270  0.25920  1.0000
  C   C180      1.0  0.12450  0.00270  0.49080  1.0000
  C   C181      1.0  0.87550  0.24080  0.25270  1.0000
  C   C182      1.0  0.87450  0.00920  0.75270  1.0000
  C   C183      1.0  0.37550  0.50920  0.99730  1.0000
  C   C184      1.0  0.37450  0.74080  0.49730  1.0000
  C   C185      1.0  0.74080  0.99730  0.87450  1.0000
  C   C186      1.0  0.50920  0.49730  0.87550  1.0000
  C   C187      1.0  0.00920  0.25270  0.37450  1.0000
  C   C188      1.0  0.24080  0.75270  0.37550  1.0000
  C   C189      1.0  0.49730  0.37550  0.00920  1.0000
  C   C190      1.0  0.99730  0.37450  0.24080  1.0000
  C   C191      1.0  0.75270  0.87550  0.74080  1.0000
  C   C192      1.0  0.25270  0.87450  0.50920  1.0000
  C   C193      1.0  0.00360  0.88150  0.19380  1.0000
  C   C194      1.0  0.24640  0.86850  0.69380  1.0000
  C   C195      1.0  0.74640  0.38150  0.05620  1.0000
  C   C196      1.0  0.50360  0.36850  0.55620  1.0000
  C   C197      1.0  0.19380  0.00360  0.88150  1.0000
  C   C198      1.0  0.69380  0.24640  0.86850  1.0000
  C   C199      1.0  0.05620  0.74640  0.38150  1.0000
  C   C200      1.0  0.55620  0.50360  0.36850  1.0000
  C   C201      1.0  0.88150  0.19380  0.00360  1.0000
  C   C202      1.0  0.86850  0.69380  0.24640  1.0000
  C   C203      1.0  0.38150  0.05620  0.74640  1.0000
  C   C204      1.0  0.36850  0.55620  0.50360  1.0000
  C   C205      1.0  0.63150  0.25360  0.80620  1.0000
  C   C206      1.0  0.61850  0.49640  0.30620  1.0000
  C   C207      1.0  0.13150  0.99640  0.94380  1.0000
  C   C208      1.0  0.11850  0.75360  0.44380  1.0000
  C   C209      1.0  0.75360  0.44380  0.11850  1.0000
  C   C210      1.0  0.99640  0.94380  0.13150  1.0000
  C   C211      1.0  0.49640  0.30620  0.61850  1.0000
  C   C212      1.0  0.25360  0.80620  0.63150  1.0000
  C   C213      1.0  0.94380  0.13150  0.99640  1.0000
  C   C214      1.0  0.44380  0.11850  0.75360  1.0000
  C   C215      1.0  0.80620  0.63150  0.25360  1.0000
  C   C216      1.0  0.30620  0.61850  0.49640  1.0000
  C   C217      1.0  0.00360  0.38150  0.69380  1.0000
  C   C218      1.0  0.24640  0.36850  0.19380  1.0000
  C   C219      1.0  0.74640  0.88150  0.55620  1.0000
  C   C220      1.0  0.50360  0.86850  0.05620  1.0000
  C   C221      1.0  0.19380  0.50360  0.38150  1.0000
  C   C222      1.0  0.69380  0.74640  0.36850  1.0000
  C   C223      1.0  0.05620  0.24640  0.88150  1.0000
  C   C224      1.0  0.55620  0.00360  0.86850  1.0000
  C   C225      1.0  0.88150  0.69380  0.50360  1.0000
  C   C226      1.0  0.86850  0.19380  0.74640  1.0000
  C   C227      1.0  0.38150  0.55620  0.24640  1.0000
  C   C228      1.0  0.36850  0.05620  0.00360  1.0000
  C   C229      1.0  0.63150  0.75360  0.30620  1.0000
  C   C230      1.0  0.61850  0.99640  0.80620  1.0000
  C   C231      1.0  0.13150  0.49640  0.44380  1.0000
  C   C232      1.0  0.11850  0.25360  0.94380  1.0000
  C   C233      1.0  0.75360  0.94380  0.61850  1.0000
  C   C234      1.0  0.99640  0.44380  0.63150  1.0000
  C   C235      1.0  0.49640  0.80620  0.11850  1.0000
  C   C236      1.0  0.25360  0.30620  0.13150  1.0000
  C   C237      1.0  0.94380  0.63150  0.49640  1.0000
  C   C238      1.0  0.44380  0.61850  0.25360  1.0000
  C   C239      1.0  0.80620  0.13150  0.75360  1.0000
  C   C240      1.0  0.30620  0.11850  0.99640  1.0000
  C   C241      1.0  0.50360  0.88150  0.69380  1.0000
  C   C242      1.0  0.74640  0.86850  0.19380  1.0000
  C   C243      1.0  0.24640  0.38150  0.55620  1.0000
  C   C244      1.0  0.00360  0.36850  0.05620  1.0000
  C   C245      1.0  0.69380  0.00360  0.38150  1.0000
  C   C246      1.0  0.19380  0.24640  0.36850  1.0000
  C   C247      1.0  0.55620  0.74640  0.88150  1.0000
  C   C248      1.0  0.05620  0.50360  0.86850  1.0000
  C   C249      1.0  0.38150  0.19380  0.50360  1.0000
  C   C250      1.0  0.36850  0.69380  0.74640  1.0000
  C   C251      1.0  0.88150  0.05620  0.24640  1.0000
  C   C252      1.0  0.86850  0.55620  0.00360  1.0000
  C   C253      1.0  0.13150  0.25360  0.30620  1.0000
  C   C254      1.0  0.11850  0.49640  0.80620  1.0000
  C   C255      1.0  0.63150  0.99640  0.44380  1.0000
  C   C256      1.0  0.61850  0.75360  0.94380  1.0000
  C   C257      1.0  0.25360  0.44380  0.61850  1.0000
  C   C258      1.0  0.49640  0.94380  0.63150  1.0000
  C   C259      1.0  0.99640  0.30620  0.11850  1.0000
  C   C260      1.0  0.75360  0.80620  0.13150  1.0000
  C   C261      1.0  0.44380  0.13150  0.49640  1.0000
  C   C262      1.0  0.94380  0.11850  0.25360  1.0000
  C   C263      1.0  0.30620  0.63150  0.75360  1.0000
  C   C264      1.0  0.80620  0.61850  0.99640  1.0000
  C   C265      1.0  0.50360  0.38150  0.19380  1.0000
  C   C266      1.0  0.74640  0.36850  0.69380  1.0000
  C   C267      1.0  0.24640  0.88150  0.05620  1.0000
  C   C268      1.0  0.00360  0.86850  0.55620  1.0000
  C   C269      1.0  0.69380  0.50360  0.88150  1.0000
  C   C270      1.0  0.19380  0.74640  0.86850  1.0000
  C   C271      1.0  0.55620  0.24640  0.38150  1.0000
  C   C272      1.0  0.05620  0.00360  0.36850  1.0000
  C   C273      1.0  0.38150  0.69380  0.00360  1.0000
  C   C274      1.0  0.36850  0.19380  0.24640  1.0000
  C   C275      1.0  0.88150  0.55620  0.74640  1.0000
  C   C276      1.0  0.86850  0.05620  0.50360  1.0000
  C   C277      1.0  0.13150  0.75360  0.80620  1.0000
  C   C278      1.0  0.11850  0.99640  0.30620  1.0000
  C   C279      1.0  0.63150  0.49640  0.94380  1.0000
  C   C280      1.0  0.61850  0.25360  0.44380  1.0000
  C   C281      1.0  0.25360  0.94380  0.11850  1.0000
  C   C282      1.0  0.49640  0.44380  0.13150  1.0000
  C   C283      1.0  0.99640  0.80620  0.61850  1.0000
  C   C284      1.0  0.75360  0.30620  0.63150  1.0000
  C   C285      1.0  0.44380  0.63150  0.99640  1.0000
  C   C286      1.0  0.94380  0.61850  0.75360  1.0000
  C   C287      1.0  0.30620  0.13150  0.25360  1.0000
  C   C288      1.0  0.80620  0.11850  0.49640  1.0000
  C   C289      1.0  0.99640  0.11850  0.80620  1.0000
  C   C290      1.0  0.75360  0.13150  0.30620  1.0000
  C   C291      1.0  0.25360  0.61850  0.94380  1.0000
  C   C292      1.0  0.49640  0.63150  0.44380  1.0000
  C   C293      1.0  0.80620  0.99640  0.11850  1.0000
  C   C294      1.0  0.30620  0.75360  0.13150  1.0000
  C   C295      1.0  0.94380  0.25360  0.61850  1.0000
  C   C296      1.0  0.44380  0.49640  0.63150  1.0000
  C   C297      1.0  0.11850  0.80620  0.99640  1.0000
  C   C298      1.0  0.13150  0.30620  0.75360  1.0000
  C   C299      1.0  0.61850  0.94380  0.25360  1.0000
  C   C300      1.0  0.63150  0.44380  0.49640  1.0000
  C   C301      1.0  0.36850  0.74640  0.19380  1.0000
  C   C302      1.0  0.38150  0.50360  0.69380  1.0000
  C   C303      1.0  0.86850  0.00360  0.05620  1.0000
  C   C304      1.0  0.88150  0.24640  0.55620  1.0000
  C   C305      1.0  0.24640  0.55620  0.88150  1.0000
  C   C306      1.0  0.00360  0.05620  0.86850  1.0000
  C   C307      1.0  0.50360  0.69380  0.38150  1.0000
  C   C308      1.0  0.74640  0.19380  0.36850  1.0000
  C   C309      1.0  0.05620  0.86850  0.00360  1.0000
  C   C310      1.0  0.55620  0.88150  0.24640  1.0000
  C   C311      1.0  0.19380  0.36850  0.74640  1.0000
  C   C312      1.0  0.69380  0.38150  0.50360  1.0000
  C   C313      1.0  0.99640  0.61850  0.30620  1.0000
  C   C314      1.0  0.75360  0.63150  0.80620  1.0000
  C   C315      1.0  0.25360  0.11850  0.44380  1.0000
  C   C316      1.0  0.49640  0.13150  0.94380  1.0000
  C   C317      1.0  0.80620  0.49640  0.61850  1.0000
  C   C318      1.0  0.30620  0.25360  0.63150  1.0000
  C   C319      1.0  0.94380  0.75360  0.11850  1.0000
  C   C320      1.0  0.44380  0.99640  0.13150  1.0000
  C   C321      1.0  0.11850  0.30620  0.49640  1.0000
  C   C322      1.0  0.13150  0.80620  0.25360  1.0000
  C   C323      1.0  0.61850  0.44380  0.75360  1.0000
  C   C324      1.0  0.63150  0.94380  0.99640  1.0000
  C   C325      1.0  0.36850  0.24640  0.69380  1.0000
  C   C326      1.0  0.38150  0.00360  0.19380  1.0000
  C   C327      1.0  0.86850  0.50360  0.55620  1.0000
  C   C328      1.0  0.88150  0.74640  0.05620  1.0000
  C   C329      1.0  0.24640  0.05620  0.38150  1.0000
  C   C330      1.0  0.00360  0.55620  0.36850  1.0000
  C   C331      1.0  0.50360  0.19380  0.88150  1.0000
  C   C332      1.0  0.74640  0.69380  0.86850  1.0000
  C   C333      1.0  0.05620  0.36850  0.50360  1.0000
  C   C334      1.0  0.55620  0.38150  0.74640  1.0000
  C   C335      1.0  0.19380  0.86850  0.24640  1.0000
  C   C336      1.0  0.69380  0.88150  0.00360  1.0000
  C   C337      1.0  0.49640  0.11850  0.30620  1.0000
  C   C338      1.0  0.25360  0.13150  0.80620  1.0000
  C   C339      1.0  0.75360  0.61850  0.44380  1.0000
  C   C340      1.0  0.99640  0.63150  0.94380  1.0000
  C   C341      1.0  0.30620  0.99640  0.61850  1.0000
  C   C342      1.0  0.80620  0.75360  0.63150  1.0000
  C   C343      1.0  0.44380  0.25360  0.11850  1.0000
  C   C344      1.0  0.94380  0.49640  0.13150  1.0000
  C   C345      1.0  0.61850  0.80620  0.49640  1.0000
  C   C346      1.0  0.63150  0.30620  0.25360  1.0000
  C   C347      1.0  0.11850  0.94380  0.75360  1.0000
  C   C348      1.0  0.13150  0.44380  0.99640  1.0000
  C   C349      1.0  0.86850  0.74640  0.69380  1.0000
  C   C350      1.0  0.88150  0.50360  0.19380  1.0000
  C   C351      1.0  0.36850  0.00360  0.55620  1.0000
  C   C352      1.0  0.38150  0.24640  0.05620  1.0000
  C   C353      1.0  0.74640  0.55620  0.38150  1.0000
  C   C354      1.0  0.50360  0.05620  0.36850  1.0000
  C   C355      1.0  0.00360  0.69380  0.88150  1.0000
  C   C356      1.0  0.24640  0.19380  0.86850  1.0000
  C   C357      1.0  0.55620  0.86850  0.50360  1.0000
  C   C358      1.0  0.05620  0.88150  0.74640  1.0000
  C   C359      1.0  0.69380  0.36850  0.24640  1.0000
  C   C360      1.0  0.19380  0.38150  0.00360  1.0000
  C   C361      1.0  0.49640  0.61850  0.80620  1.0000
  C   C362      1.0  0.25360  0.63150  0.30620  1.0000
  C   C363      1.0  0.75360  0.11850  0.94380  1.0000
  C   C364      1.0  0.99640  0.13150  0.44380  1.0000
  C   C365      1.0  0.30620  0.49640  0.11850  1.0000
  C   C366      1.0  0.80620  0.25360  0.13150  1.0000
  C   C367      1.0  0.44380  0.75360  0.61850  1.0000
  C   C368      1.0  0.94380  0.99640  0.63150  1.0000
  C   C369      1.0  0.61850  0.30620  0.99640  1.0000
  C   C370      1.0  0.63150  0.80620  0.75360  1.0000
  C   C371      1.0  0.11850  0.44380  0.25360  1.0000
  C   C372      1.0  0.13150  0.94380  0.49640  1.0000
  C   C373      1.0  0.86850  0.24640  0.19380  1.0000
  C   C374      1.0  0.88150  0.00360  0.69380  1.0000
  C   C375      1.0  0.36850  0.50360  0.05620  1.0000
  C   C376      1.0  0.38150  0.74640  0.55620  1.0000
  C   C377      1.0  0.74640  0.05620  0.88150  1.0000
  C   C378      1.0  0.50360  0.55620  0.86850  1.0000
  C   C379      1.0  0.00360  0.19380  0.38150  1.0000
  C   C380      1.0  0.24640  0.69380  0.36850  1.0000
  C   C381      1.0  0.55620  0.36850  0.00360  1.0000
  C   C382      1.0  0.05620  0.38150  0.24640  1.0000
  C   C383      1.0  0.69380  0.86850  0.74640  1.0000
  C   C384      1.0  0.19380  0.88150  0.50360  1.0000
  H   H1        1.0  0.03370  0.86680  0.17610  1.0000
  H   H2        1.0  0.21630  0.88320  0.67610  1.0000
  H   H3        1.0  0.71630  0.36680  0.07390  1.0000
  H   H4        1.0  0.53370  0.38320  0.57390  1.0000
  H   H5        1.0  0.17610  0.03370  0.86680  1.0000
  H   H6        1.0  0.67610  0.21630  0.88320  1.0000
  H   H7        1.0  0.07390  0.71630  0.36680  1.0000
  H   H8        1.0  0.57390  0.53370  0.38320  1.0000
  H   H9        1.0  0.86680  0.17610  0.03370  1.0000
  H   H10       1.0  0.88320  0.67610  0.21630  1.0000
  H   H11       1.0  0.36680  0.07390  0.71630  1.0000
  H   H12       1.0  0.38320  0.57390  0.53370  1.0000
  H   H13       1.0  0.61680  0.28370  0.82390  1.0000
  H   H14       1.0  0.63320  0.46630  0.32390  1.0000
  H   H15       1.0  0.11680  0.96630  0.92610  1.0000
  H   H16       1.0  0.13320  0.78370  0.42610  1.0000
  H   H17       1.0  0.78370  0.42610  0.13320  1.0000
  H   H18       1.0  0.96630  0.92610  0.11680  1.0000
  H   H19       1.0  0.46630  0.32390  0.63320  1.0000
  H   H20       1.0  0.28370  0.82390  0.61680  1.0000
  H   H21       1.0  0.92610  0.11680  0.96630  1.0000
  H   H22       1.0  0.42610  0.13320  0.78370  1.0000
  H   H23       1.0  0.82390  0.61680  0.28370  1.0000
  H   H24       1.0  0.32390  0.63320  0.46630  1.0000
  H   H25       1.0  0.03370  0.36680  0.67610  1.0000
  H   H26       1.0  0.21630  0.38320  0.17610  1.0000
  H   H27       1.0  0.71630  0.86680  0.57390  1.0000
  H   H28       1.0  0.53370  0.88320  0.07390  1.0000
  H   H29       1.0  0.17610  0.53370  0.36680  1.0000
  H   H30       1.0  0.67610  0.71630  0.38320  1.0000
  H   H31       1.0  0.07390  0.21630  0.86680  1.0000
  H   H32       1.0  0.57390  0.03370  0.88320  1.0000
  H   H33       1.0  0.86680  0.67610  0.53370  1.0000
  H   H34       1.0  0.88320  0.17610  0.71630  1.0000
  H   H35       1.0  0.36680  0.57390  0.21630  1.0000
  H   H36       1.0  0.38320  0.07390  0.03370  1.0000
  H   H37       1.0  0.61680  0.78370  0.32390  1.0000
  H   H38       1.0  0.63320  0.96630  0.82390  1.0000
  H   H39       1.0  0.11680  0.46630  0.42610  1.0000
  H   H40       1.0  0.13320  0.28370  0.92610  1.0000
  H   H41       1.0  0.78370  0.92610  0.63320  1.0000
  H   H42       1.0  0.96630  0.42610  0.61680  1.0000
  H   H43       1.0  0.46630  0.82390  0.13320  1.0000
  H   H44       1.0  0.28370  0.32390  0.11680  1.0000
  H   H45       1.0  0.92610  0.61680  0.46630  1.0000
  H   H46       1.0  0.42610  0.63320  0.28370  1.0000
  H   H47       1.0  0.82390  0.11680  0.78370  1.0000
  H   H48       1.0  0.32390  0.13320  0.96630  1.0000
  H   H49       1.0  0.53370  0.86680  0.67610  1.0000
  H   H50       1.0  0.71630  0.88320  0.17610  1.0000
  H   H51       1.0  0.21630  0.36680  0.57390  1.0000
  H   H52       1.0  0.03370  0.38320  0.07390  1.0000
  H   H53       1.0  0.67610  0.03370  0.36680  1.0000
  H   H54       1.0  0.17610  0.21630  0.38320  1.0000
  H   H55       1.0  0.57390  0.71630  0.86680  1.0000
  H   H56       1.0  0.07390  0.53370  0.88320  1.0000
  H   H57       1.0  0.36680  0.17610  0.53370  1.0000
  H   H58       1.0  0.38320  0.67610  0.71630  1.0000
  H   H59       1.0  0.86680  0.07390  0.21630  1.0000
  H   H60       1.0  0.88320  0.57390  0.03370  1.0000
  H   H61       1.0  0.11680  0.28370  0.32390  1.0000
  H   H62       1.0  0.13320  0.46630  0.82390  1.0000
  H   H63       1.0  0.61680  0.96630  0.42610  1.0000
  H   H64       1.0  0.63320  0.78370  0.92610  1.0000
  H   H65       1.0  0.28370  0.42610  0.63320  1.0000
  H   H66       1.0  0.46630  0.92610  0.61680  1.0000
  H   H67       1.0  0.96630  0.32390  0.13320  1.0000
  H   H68       1.0  0.78370  0.82390  0.11680  1.0000
  H   H69       1.0  0.42610  0.11680  0.46630  1.0000
  H   H70       1.0  0.92610  0.13320  0.28370  1.0000
  H   H71       1.0  0.32390  0.61680  0.78370  1.0000
  H   H72       1.0  0.82390  0.63320  0.96630  1.0000
  H   H73       1.0  0.53370  0.36680  0.17610  1.0000
  H   H74       1.0  0.71630  0.38320  0.67610  1.0000
  H   H75       1.0  0.21630  0.86680  0.07390  1.0000
  H   H76       1.0  0.03370  0.88320  0.57390  1.0000
  H   H77       1.0  0.67610  0.53370  0.86680  1.0000
  H   H78       1.0  0.17610  0.71630  0.88320  1.0000
  H   H79       1.0  0.57390  0.21630  0.36680  1.0000
  H   H80       1.0  0.07390  0.03370  0.38320  1.0000
  H   H81       1.0  0.36680  0.67610  0.03370  1.0000
  H   H82       1.0  0.38320  0.17610  0.21630  1.0000
  H   H83       1.0  0.86680  0.57390  0.71630  1.0000
  H   H84       1.0  0.88320  0.07390  0.53370  1.0000
  H   H85       1.0  0.11680  0.78370  0.82390  1.0000
  H   H86       1.0  0.13320  0.96630  0.32390  1.0000
  H   H87       1.0  0.61680  0.46630  0.92610  1.0000
  H   H88       1.0  0.63320  0.28370  0.42610  1.0000
  H   H89       1.0  0.28370  0.92610  0.13320  1.0000
  H   H90       1.0  0.46630  0.42610  0.11680  1.0000
  H   H91       1.0  0.96630  0.82390  0.63320  1.0000
  H   H92       1.0  0.78370  0.32390  0.61680  1.0000
  H   H93       1.0  0.42610  0.61680  0.96630  1.0000
  H   H94       1.0  0.92610  0.63320  0.78370  1.0000
  H   H95       1.0  0.32390  0.11680  0.28370  1.0000
  H   H96       1.0  0.82390  0.13320  0.46630  1.0000
  H   H97       1.0  0.96630  0.13320  0.82390  1.0000
  H   H98       1.0  0.78370  0.11680  0.32390  1.0000
  H   H99       1.0  0.28370  0.63320  0.92610  1.0000
  H   H100      1.0  0.46630  0.61680  0.42610  1.0000
  H   H101      1.0  0.82390  0.96630  0.13320  1.0000
  H   H102      1.0  0.32390  0.78370  0.11680  1.0000
  H   H103      1.0  0.92610  0.28370  0.63320  1.0000
  H   H104      1.0  0.42610  0.46630  0.61680  1.0000
  H   H105      1.0  0.13320  0.82390  0.96630  1.0000
  H   H106      1.0  0.11680  0.32390  0.78370  1.0000
  H   H107      1.0  0.63320  0.92610  0.28370  1.0000
  H   H108      1.0  0.61680  0.42610  0.46630  1.0000
  H   H109      1.0  0.38320  0.71630  0.17610  1.0000
  H   H110      1.0  0.36680  0.53370  0.67610  1.0000
  H   H111      1.0  0.88320  0.03370  0.07390  1.0000
  H   H112      1.0  0.86680  0.21630  0.57390  1.0000
  H   H113      1.0  0.21630  0.57390  0.86680  1.0000
  H   H114      1.0  0.03370  0.07390  0.88320  1.0000
  H   H115      1.0  0.53370  0.67610  0.36680  1.0000
  H   H116      1.0  0.71630  0.17610  0.38320  1.0000
  H   H117      1.0  0.07390  0.88320  0.03370  1.0000
  H   H118      1.0  0.57390  0.86680  0.21630  1.0000
  H   H119      1.0  0.17610  0.38320  0.71630  1.0000
  H   H120      1.0  0.67610  0.36680  0.53370  1.0000
  H   H121      1.0  0.96630  0.63320  0.32390  1.0000
  H   H122      1.0  0.78370  0.61680  0.82390  1.0000
  H   H123      1.0  0.28370  0.13320  0.42610  1.0000
  H   H124      1.0  0.46630  0.11680  0.92610  1.0000
  H   H125      1.0  0.82390  0.46630  0.63320  1.0000
  H   H126      1.0  0.32390  0.28370  0.61680  1.0000
  H   H127      1.0  0.92610  0.78370  0.13320  1.0000
  H   H128      1.0  0.42610  0.96630  0.11680  1.0000
  H   H129      1.0  0.13320  0.32390  0.46630  1.0000
  H   H130      1.0  0.11680  0.82390  0.28370  1.0000
  H   H131      1.0  0.63320  0.42610  0.78370  1.0000
  H   H132      1.0  0.61680  0.92610  0.96630  1.0000
  H   H133      1.0  0.38320  0.21630  0.67610  1.0000
  H   H134      1.0  0.36680  0.03370  0.17610  1.0000
  H   H135      1.0  0.88320  0.53370  0.57390  1.0000
  H   H136      1.0  0.86680  0.71630  0.07390  1.0000
  H   H137      1.0  0.21630  0.07390  0.36680  1.0000
  H   H138      1.0  0.03370  0.57390  0.38320  1.0000
  H   H139      1.0  0.53370  0.17610  0.86680  1.0000
  H   H140      1.0  0.71630  0.67610  0.88320  1.0000
  H   H141      1.0  0.07390  0.38320  0.53370  1.0000
  H   H142      1.0  0.57390  0.36680  0.71630  1.0000
  H   H143      1.0  0.17610  0.88320  0.21630  1.0000
  H   H144      1.0  0.67610  0.86680  0.03370  1.0000
  H   H145      1.0  0.46630  0.13320  0.32390  1.0000
  H   H146      1.0  0.28370  0.11680  0.82390  1.0000
  H   H147      1.0  0.78370  0.63320  0.42610  1.0000
  H   H148      1.0  0.96630  0.61680  0.92610  1.0000
  H   H149      1.0  0.32390  0.96630  0.63320  1.0000
  H   H150      1.0  0.82390  0.78370  0.61680  1.0000
  H   H151      1.0  0.42610  0.28370  0.13320  1.0000
  H   H152      1.0  0.92610  0.46630  0.11680  1.0000
  H   H153      1.0  0.63320  0.82390  0.46630  1.0000
  H   H154      1.0  0.61680  0.32390  0.28370  1.0000
  H   H155      1.0  0.13320  0.92610  0.78370  1.0000
  H   H156      1.0  0.11680  0.42610  0.96630  1.0000
  H   H157      1.0  0.88320  0.71630  0.67610  1.0000
  H   H158      1.0  0.86680  0.53370  0.17610  1.0000
  H   H159      1.0  0.38320  0.03370  0.57390  1.0000
  H   H160      1.0  0.36680  0.21630  0.07390  1.0000
  H   H161      1.0  0.71630  0.57390  0.36680  1.0000
  H   H162      1.0  0.53370  0.07390  0.38320  1.0000
  H   H163      1.0  0.03370  0.67610  0.86680  1.0000
  H   H164      1.0  0.21630  0.17610  0.88320  1.0000
  H   H165      1.0  0.57390  0.88320  0.53370  1.0000
  H   H166      1.0  0.07390  0.86680  0.71630  1.0000
  H   H167      1.0  0.67610  0.38320  0.21630  1.0000
  H   H168      1.0  0.17610  0.36680  0.03370  1.0000
  H   H169      1.0  0.46630  0.63320  0.82390  1.0000
  H   H170      1.0  0.28370  0.61680  0.32390  1.0000
  H   H171      1.0  0.78370  0.13320  0.92610  1.0000
  H   H172      1.0  0.96630  0.11680  0.42610  1.0000
  H   H173      1.0  0.32390  0.46630  0.13320  1.0000
  H   H174      1.0  0.82390  0.28370  0.11680  1.0000
  H   H175      1.0  0.42610  0.78370  0.63320  1.0000
  H   H176      1.0  0.92610  0.96630  0.61680  1.0000
  H   H177      1.0  0.63320  0.32390  0.96630  1.0000
  H   H178      1.0  0.61680  0.82390  0.78370  1.0000
  H   H179      1.0  0.13320  0.42610  0.28370  1.0000
  H   H180      1.0  0.11680  0.92610  0.46630  1.0000
  H   H181      1.0  0.88320  0.21630  0.17610  1.0000
  H   H182      1.0  0.86680  0.03370  0.67610  1.0000
  H   H183      1.0  0.38320  0.53370  0.07390  1.0000
  H   H184      1.0  0.36680  0.71630  0.57390  1.0000
  H   H185      1.0  0.71630  0.07390  0.86680  1.0000
  H   H186      1.0  0.53370  0.57390  0.88320  1.0000
  H   H187      1.0  0.03370  0.17610  0.36680  1.0000
  H   H188      1.0  0.21630  0.67610  0.38320  1.0000
  H   H189      1.0  0.57390  0.38320  0.03370  1.0000
  H   H190      1.0  0.07390  0.36680  0.21630  1.0000
  H   H191      1.0  0.67610  0.88320  0.71630  1.0000
  H   H192      1.0  0.17610  0.86680  0.53370  1.0000
  H   H193      1.0  0.97250  0.86360  0.18150  1.0000
  H   H194      1.0  0.27750  0.88640  0.68150  1.0000
  H   H195      1.0  0.77750  0.36360  0.06850  1.0000
  H   H196      1.0  0.47250  0.38640  0.56850  1.0000
  H   H197      1.0  0.18150  0.97250  0.86360  1.0000
  H   H198      1.0  0.68150  0.27750  0.88640  1.0000
  H   H199      1.0  0.06850  0.77750  0.36360  1.0000
  H   H200      1.0  0.56850  0.47250  0.38640  1.0000
  H   H201      1.0  0.86360  0.18150  0.97250  1.0000
  H   H202      1.0  0.88640  0.68150  0.27750  1.0000
  H   H203      1.0  0.36360  0.06850  0.77750  1.0000
  H   H204      1.0  0.38640  0.56850  0.47250  1.0000
  H   H205      1.0  0.61360  0.22250  0.81850  1.0000
  H   H206      1.0  0.63640  0.52750  0.31850  1.0000
  H   H207      1.0  0.11360  0.02750  0.93150  1.0000
  H   H208      1.0  0.13640  0.72250  0.43150  1.0000
  H   H209      1.0  0.72250  0.43150  0.13640  1.0000
  H   H210      1.0  0.02750  0.93150  0.11360  1.0000
  H   H211      1.0  0.52750  0.31850  0.63640  1.0000
  H   H212      1.0  0.22250  0.81850  0.61360  1.0000
  H   H213      1.0  0.93150  0.11360  0.02750  1.0000
  H   H214      1.0  0.43150  0.13640  0.72250  1.0000
  H   H215      1.0  0.81850  0.61360  0.22250  1.0000
  H   H216      1.0  0.31850  0.63640  0.52750  1.0000
  H   H217      1.0  0.97250  0.36360  0.68150  1.0000
  H   H218      1.0  0.27750  0.38640  0.18150  1.0000
  H   H219      1.0  0.77750  0.86360  0.56850  1.0000
  H   H220      1.0  0.47250  0.88640  0.06850  1.0000
  H   H221      1.0  0.18150  0.47250  0.36360  1.0000
  H   H222      1.0  0.68150  0.77750  0.38640  1.0000
  H   H223      1.0  0.06850  0.27750  0.86360  1.0000
  H   H224      1.0  0.56850  0.97250  0.88640  1.0000
  H   H225      1.0  0.86360  0.68150  0.47250  1.0000
  H   H226      1.0  0.88640  0.18150  0.77750  1.0000
  H   H227      1.0  0.36360  0.56850  0.27750  1.0000
  H   H228      1.0  0.38640  0.06850  0.97250  1.0000
  H   H229      1.0  0.61360  0.72250  0.31850  1.0000
  H   H230      1.0  0.63640  0.02750  0.81850  1.0000
  H   H231      1.0  0.11360  0.52750  0.43150  1.0000
  H   H232      1.0  0.13640  0.22250  0.93150  1.0000
  H   H233      1.0  0.72250  0.93150  0.63640  1.0000
  H   H234      1.0  0.02750  0.43150  0.61360  1.0000
  H   H235      1.0  0.52750  0.81850  0.13640  1.0000
  H   H236      1.0  0.22250  0.31850  0.11360  1.0000
  H   H237      1.0  0.93150  0.61360  0.52750  1.0000
  H   H238      1.0  0.43150  0.63640  0.22250  1.0000
  H   H239      1.0  0.81850  0.11360  0.72250  1.0000
  H   H240      1.0  0.31850  0.13640  0.02750  1.0000
  H   H241      1.0  0.47250  0.86360  0.68150  1.0000
  H   H242      1.0  0.77750  0.88640  0.18150  1.0000
  H   H243      1.0  0.27750  0.36360  0.56850  1.0000
  H   H244      1.0  0.97250  0.38640  0.06850  1.0000
  H   H245      1.0  0.68150  0.97250  0.36360  1.0000
  H   H246      1.0  0.18150  0.27750  0.38640  1.0000
  H   H247      1.0  0.56850  0.77750  0.86360  1.0000
  H   H248      1.0  0.06850  0.47250  0.88640  1.0000
  H   H249      1.0  0.36360  0.18150  0.47250  1.0000
  H   H250      1.0  0.38640  0.68150  0.77750  1.0000
  H   H251      1.0  0.86360  0.06850  0.27750  1.0000
  H   H252      1.0  0.88640  0.56850  0.97250  1.0000
  H   H253      1.0  0.11360  0.22250  0.31850  1.0000
  H   H254      1.0  0.13640  0.52750  0.81850  1.0000
  H   H255      1.0  0.61360  0.02750  0.43150  1.0000
  H   H256      1.0  0.63640  0.72250  0.93150  1.0000
  H   H257      1.0  0.22250  0.43150  0.63640  1.0000
  H   H258      1.0  0.52750  0.93150  0.61360  1.0000
  H   H259      1.0  0.02750  0.31850  0.13640  1.0000
  H   H260      1.0  0.72250  0.81850  0.11360  1.0000
  H   H261      1.0  0.43150  0.11360  0.52750  1.0000
  H   H262      1.0  0.93150  0.13640  0.22250  1.0000
  H   H263      1.0  0.31850  0.61360  0.72250  1.0000
  H   H264      1.0  0.81850  0.63640  0.02750  1.0000
  H   H265      1.0  0.47250  0.36360  0.18150  1.0000
  H   H266      1.0  0.77750  0.38640  0.68150  1.0000
  H   H267      1.0  0.27750  0.86360  0.06850  1.0000
  H   H268      1.0  0.97250  0.88640  0.56850  1.0000
  H   H269      1.0  0.68150  0.47250  0.86360  1.0000
  H   H270      1.0  0.18150  0.77750  0.88640  1.0000
  H   H271      1.0  0.56850  0.27750  0.36360  1.0000
  H   H272      1.0  0.06850  0.97250  0.38640  1.0000
  H   H273      1.0  0.36360  0.68150  0.97250  1.0000
  H   H274      1.0  0.38640  0.18150  0.27750  1.0000
  H   H275      1.0  0.86360  0.56850  0.77750  1.0000
  H   H276      1.0  0.88640  0.06850  0.47250  1.0000
  H   H277      1.0  0.11360  0.72250  0.81850  1.0000
  H   H278      1.0  0.13640  0.02750  0.31850  1.0000
  H   H279      1.0  0.61360  0.52750  0.93150  1.0000
  H   H280      1.0  0.63640  0.22250  0.43150  1.0000
  H   H281      1.0  0.22250  0.93150  0.13640  1.0000
  H   H282      1.0  0.52750  0.43150  0.11360  1.0000
  H   H283      1.0  0.02750  0.81850  0.63640  1.0000
  H   H284      1.0  0.72250  0.31850  0.61360  1.0000
  H   H285      1.0  0.43150  0.61360  0.02750  1.0000
  H   H286      1.0  0.93150  0.63640  0.72250  1.0000
  H   H287      1.0  0.31850  0.11360  0.22250  1.0000
  H   H288      1.0  0.81850  0.13640  0.52750  1.0000
  H   H289      1.0  0.02750  0.13640  0.81850  1.0000
  H   H290      1.0  0.72250  0.11360  0.31850  1.0000
  H   H291      1.0  0.22250  0.63640  0.93150  1.0000
  H   H292      1.0  0.52750  0.61360  0.43150  1.0000
  H   H293      1.0  0.81850  0.02750  0.13640  1.0000
  H   H294      1.0  0.31850  0.72250  0.11360  1.0000
  H   H295      1.0  0.93150  0.22250  0.63640  1.0000
  H   H296      1.0  0.43150  0.52750  0.61360  1.0000
  H   H297      1.0  0.13640  0.81850  0.02750  1.0000
  H   H298      1.0  0.11360  0.31850  0.72250  1.0000
  H   H299      1.0  0.63640  0.93150  0.22250  1.0000
  H   H300      1.0  0.61360  0.43150  0.52750  1.0000
  H   H301      1.0  0.38640  0.77750  0.18150  1.0000
  H   H302      1.0  0.36360  0.47250  0.68150  1.0000
  H   H303      1.0  0.88640  0.97250  0.06850  1.0000
  H   H304      1.0  0.86360  0.27750  0.56850  1.0000
  H   H305      1.0  0.27750  0.56850  0.86360  1.0000
  H   H306      1.0  0.97250  0.06850  0.88640  1.0000
  H   H307      1.0  0.47250  0.68150  0.36360  1.0000
  H   H308      1.0  0.77750  0.18150  0.38640  1.0000
  H   H309      1.0  0.06850  0.88640  0.97250  1.0000
  H   H310      1.0  0.56850  0.86360  0.27750  1.0000
  H   H311      1.0  0.18150  0.38640  0.77750  1.0000
  H   H312      1.0  0.68150  0.36360  0.47250  1.0000
  H   H313      1.0  0.02750  0.63640  0.31850  1.0000
  H   H314      1.0  0.72250  0.61360  0.81850  1.0000
  H   H315      1.0  0.22250  0.13640  0.43150  1.0000
  H   H316      1.0  0.52750  0.11360  0.93150  1.0000
  H   H317      1.0  0.81850  0.52750  0.63640  1.0000
  H   H318      1.0  0.31850  0.22250  0.61360  1.0000
  H   H319      1.0  0.93150  0.72250  0.13640  1.0000
  H   H320      1.0  0.43150  0.02750  0.11360  1.0000
  H   H321      1.0  0.13640  0.31850  0.52750  1.0000
  H   H322      1.0  0.11360  0.81850  0.22250  1.0000
  H   H323      1.0  0.63640  0.43150  0.72250  1.0000
  H   H324      1.0  0.61360  0.93150  0.02750  1.0000
  H   H325      1.0  0.38640  0.27750  0.68150  1.0000
  H   H326      1.0  0.36360  0.97250  0.18150  1.0000
  H   H327      1.0  0.88640  0.47250  0.56850  1.0000
  H   H328      1.0  0.86360  0.77750  0.06850  1.0000
  H   H329      1.0  0.27750  0.06850  0.36360  1.0000
  H   H330      1.0  0.97250  0.56850  0.38640  1.0000
  H   H331      1.0  0.47250  0.18150  0.86360  1.0000
  H   H332      1.0  0.77750  0.68150  0.88640  1.0000
  H   H333      1.0  0.06850  0.38640  0.47250  1.0000
  H   H334      1.0  0.56850  0.36360  0.77750  1.0000
  H   H335      1.0  0.18150  0.88640  0.27750  1.0000
  H   H336      1.0  0.68150  0.86360  0.97250  1.0000
  H   H337      1.0  0.52750  0.13640  0.31850  1.0000
  H   H338      1.0  0.22250  0.11360  0.81850  1.0000
  H   H339      1.0  0.72250  0.63640  0.43150  1.0000
  H   H340      1.0  0.02750  0.61360  0.93150  1.0000
  H   H341      1.0  0.31850  0.02750  0.63640  1.0000
  H   H342      1.0  0.81850  0.72250  0.61360  1.0000
  H   H343      1.0  0.43150  0.22250  0.13640  1.0000
  H   H344      1.0  0.93150  0.52750  0.11360  1.0000
  H   H345      1.0  0.63640  0.81850  0.52750  1.0000
  H   H346      1.0  0.61360  0.31850  0.22250  1.0000
  H   H347      1.0  0.13640  0.93150  0.72250  1.0000
  H   H348      1.0  0.11360  0.43150  0.02750  1.0000
  H   H349      1.0  0.88640  0.77750  0.68150  1.0000
  H   H350      1.0  0.86360  0.47250  0.18150  1.0000
  H   H351      1.0  0.38640  0.97250  0.56850  1.0000
  H   H352      1.0  0.36360  0.27750  0.06850  1.0000
  H   H353      1.0  0.77750  0.56850  0.36360  1.0000
  H   H354      1.0  0.47250  0.06850  0.38640  1.0000
  H   H355      1.0  0.97250  0.68150  0.86360  1.0000
  H   H356      1.0  0.27750  0.18150  0.88640  1.0000
  H   H357      1.0  0.56850  0.88640  0.47250  1.0000
  H   H358      1.0  0.06850  0.86360  0.77750  1.0000
  H   H359      1.0  0.68150  0.38640  0.27750  1.0000
  H   H360      1.0  0.18150  0.36360  0.97250  1.0000
  H   H361      1.0  0.52750  0.63640  0.81850  1.0000
  H   H362      1.0  0.22250  0.61360  0.31850  1.0000
  H   H363      1.0  0.72250  0.13640  0.93150  1.0000
  H   H364      1.0  0.02750  0.11360  0.43150  1.0000
  H   H365      1.0  0.31850  0.52750  0.13640  1.0000
  H   H366      1.0  0.81850  0.22250  0.11360  1.0000
  H   H367      1.0  0.43150  0.72250  0.63640  1.0000
  H   H368      1.0  0.93150  0.02750  0.61360  1.0000
  H   H369      1.0  0.63640  0.31850  0.02750  1.0000
  H   H370      1.0  0.61360  0.81850  0.72250  1.0000
  H   H371      1.0  0.13640  0.43150  0.22250  1.0000
  H   H372      1.0  0.11360  0.93150  0.52750  1.0000
  H   H373      1.0  0.88640  0.27750  0.18150  1.0000
  H   H374      1.0  0.86360  0.97250  0.68150  1.0000
  H   H375      1.0  0.38640  0.47250  0.06850  1.0000
  H   H376      1.0  0.36360  0.77750  0.56850  1.0000
  H   H377      1.0  0.77750  0.06850  0.86360  1.0000
  H   H378      1.0  0.47250  0.56850  0.88640  1.0000
  H   H379      1.0  0.97250  0.18150  0.36360  1.0000
  H   H380      1.0  0.27750  0.68150  0.38640  1.0000
  H   H381      1.0  0.56850  0.38640  0.97250  1.0000
  H   H382      1.0  0.06850  0.36360  0.27750  1.0000
  H   H383      1.0  0.68150  0.88640  0.77750  1.0000
  H   H384      1.0  0.18150  0.86360  0.47250  1.0000
  O   O1        1.0  0.00900  0.91390  0.27970  1.0000
  O   O2        1.0  0.24100  0.83610  0.77970  1.0000
  O   O3        1.0  0.74100  0.41390  0.97030  1.0000
  O   O4        1.0  0.50900  0.33610  0.47030  1.0000
  O   O5        1.0  0.27970  0.00900  0.91390  1.0000
  O   O6        1.0  0.77970  0.24100  0.83610  1.0000
  O   O7        1.0  0.97030  0.74100  0.41390  1.0000
  O   O8        1.0  0.47030  0.50900  0.33610  1.0000
  O   O9        1.0  0.91390  0.27970  0.00900  1.0000
  O   O10       1.0  0.83610  0.77970  0.24100  1.0000
  O   O11       1.0  0.41390  0.97030  0.74100  1.0000
  O   O12       1.0  0.33610  0.47030  0.50900  1.0000
  O   O13       1.0  0.66390  0.25900  0.72030  1.0000
  O   O14       1.0  0.58610  0.49100  0.22030  1.0000
  O   O15       1.0  0.16390  0.99100  0.02970  1.0000
  O   O16       1.0  0.08610  0.75900  0.52970  1.0000
  O   O17       1.0  0.75900  0.52970  0.08610  1.0000
  O   O18       1.0  0.99100  0.02970  0.16390  1.0000
  O   O19       1.0  0.49100  0.22030  0.58610  1.0000
  O   O20       1.0  0.25900  0.72030  0.66390  1.0000
  O   O21       1.0  0.02970  0.16390  0.99100  1.0000
  O   O22       1.0  0.52970  0.08610  0.75900  1.0000
  O   O23       1.0  0.72030  0.66390  0.25900  1.0000
  O   O24       1.0  0.22030  0.58610  0.49100  1.0000
  O   O25       1.0  0.00900  0.41390  0.77970  1.0000
  O   O26       1.0  0.24100  0.33610  0.27970  1.0000
  O   O27       1.0  0.74100  0.91390  0.47030  1.0000
  O   O28       1.0  0.50900  0.83610  0.97030  1.0000
  O   O29       1.0  0.27970  0.50900  0.41390  1.0000
  O   O30       1.0  0.77970  0.74100  0.33610  1.0000
  O   O31       1.0  0.97030  0.24100  0.91390  1.0000
  O   O32       1.0  0.47030  0.00900  0.83610  1.0000
  O   O33       1.0  0.91390  0.77970  0.50900  1.0000
  O   O34       1.0  0.83610  0.27970  0.74100  1.0000
  O   O35       1.0  0.41390  0.47030  0.24100  1.0000
  O   O36       1.0  0.33610  0.97030  0.00900  1.0000
  O   O37       1.0  0.66390  0.75900  0.22030  1.0000
  O   O38       1.0  0.58610  0.99100  0.72030  1.0000
  O   O39       1.0  0.16390  0.49100  0.52970  1.0000
  O   O40       1.0  0.08610  0.25900  0.02970  1.0000
  O   O41       1.0  0.75900  0.02970  0.58610  1.0000
  O   O42       1.0  0.99100  0.52970  0.66390  1.0000
  O   O43       1.0  0.49100  0.72030  0.08610  1.0000
  O   O44       1.0  0.25900  0.22030  0.16390  1.0000
  O   O45       1.0  0.02970  0.66390  0.49100  1.0000
  O   O46       1.0  0.52970  0.58610  0.25900  1.0000
  O   O47       1.0  0.72030  0.16390  0.75900  1.0000
  O   O48       1.0  0.22030  0.08610  0.99100  1.0000
  O   O49       1.0  0.50900  0.91390  0.77970  1.0000
  O   O50       1.0  0.74100  0.83610  0.27970  1.0000
  O   O51       1.0  0.24100  0.41390  0.47030  1.0000
  O   O52       1.0  0.00900  0.33610  0.97030  1.0000
  O   O53       1.0  0.77970  0.00900  0.41390  1.0000
  O   O54       1.0  0.27970  0.24100  0.33610  1.0000
  O   O55       1.0  0.47030  0.74100  0.91390  1.0000
  O   O56       1.0  0.97030  0.50900  0.83610  1.0000
  O   O57       1.0  0.41390  0.27970  0.50900  1.0000
  O   O58       1.0  0.33610  0.77970  0.74100  1.0000
  O   O59       1.0  0.91390  0.97030  0.24100  1.0000
  O   O60       1.0  0.83610  0.47030  0.00900  1.0000
  O   O61       1.0  0.16390  0.25900  0.22030  1.0000
  O   O62       1.0  0.08610  0.49100  0.72030  1.0000
  O   O63       1.0  0.66390  0.99100  0.52970  1.0000
  O   O64       1.0  0.58610  0.75900  0.02970  1.0000
  O   O65       1.0  0.25900  0.52970  0.58610  1.0000
  O   O66       1.0  0.49100  0.02970  0.66390  1.0000
  O   O67       1.0  0.99100  0.22030  0.08610  1.0000
  O   O68       1.0  0.75900  0.72030  0.16390  1.0000
  O   O69       1.0  0.52970  0.16390  0.49100  1.0000
  O   O70       1.0  0.02970  0.08610  0.25900  1.0000
  O   O71       1.0  0.22030  0.66390  0.75900  1.0000
  O   O72       1.0  0.72030  0.58610  0.99100  1.0000
  O   O73       1.0  0.50900  0.41390  0.27970  1.0000
  O   O74       1.0  0.74100  0.33610  0.77970  1.0000
  O   O75       1.0  0.24100  0.91390  0.97030  1.0000
  O   O76       1.0  0.00900  0.83610  0.47030  1.0000
  O   O77       1.0  0.77970  0.50900  0.91390  1.0000
  O   O78       1.0  0.27970  0.74100  0.83610  1.0000
  O   O79       1.0  0.47030  0.24100  0.41390  1.0000
  O   O80       1.0  0.97030  0.00900  0.33610  1.0000
  O   O81       1.0  0.41390  0.77970  0.00900  1.0000
  O   O82       1.0  0.33610  0.27970  0.24100  1.0000
  O   O83       1.0  0.91390  0.47030  0.74100  1.0000
  O   O84       1.0  0.83610  0.97030  0.50900  1.0000
  O   O85       1.0  0.16390  0.75900  0.72030  1.0000
  O   O86       1.0  0.08610  0.99100  0.22030  1.0000
  O   O87       1.0  0.66390  0.49100  0.02970  1.0000
  O   O88       1.0  0.58610  0.25900  0.52970  1.0000
  O   O89       1.0  0.25900  0.02970  0.08610  1.0000
  O   O90       1.0  0.49100  0.52970  0.16390  1.0000
  O   O91       1.0  0.99100  0.72030  0.58610  1.0000
  O   O92       1.0  0.75900  0.22030  0.66390  1.0000
  O   O93       1.0  0.52970  0.66390  0.99100  1.0000
  O   O94       1.0  0.02970  0.58610  0.75900  1.0000
  O   O95       1.0  0.22030  0.16390  0.25900  1.0000
  O   O96       1.0  0.72030  0.08610  0.49100  1.0000
  O   O97       1.0  0.99100  0.08610  0.72030  1.0000
  O   O98       1.0  0.75900  0.16390  0.22030  1.0000
  O   O99       1.0  0.25900  0.58610  0.02970  1.0000
  O   O100      1.0  0.49100  0.66390  0.52970  1.0000
  O   O101      1.0  0.72030  0.99100  0.08610  1.0000
  O   O102      1.0  0.22030  0.75900  0.16390  1.0000
  O   O103      1.0  0.02970  0.25900  0.58610  1.0000
  O   O104      1.0  0.52970  0.49100  0.66390  1.0000
  O   O105      1.0  0.08610  0.72030  0.99100  1.0000
  O   O106      1.0  0.16390  0.22030  0.75900  1.0000
  O   O107      1.0  0.58610  0.02970  0.25900  1.0000
  O   O108      1.0  0.66390  0.52970  0.49100  1.0000
  O   O109      1.0  0.33610  0.74100  0.27970  1.0000
  O   O110      1.0  0.41390  0.50900  0.77970  1.0000
  O   O111      1.0  0.83610  0.00900  0.97030  1.0000
  O   O112      1.0  0.91390  0.24100  0.47030  1.0000
  O   O113      1.0  0.24100  0.47030  0.91390  1.0000
  O   O114      1.0  0.00900  0.97030  0.83610  1.0000
  O   O115      1.0  0.50900  0.77970  0.41390  1.0000
  O   O116      1.0  0.74100  0.27970  0.33610  1.0000
  O   O117      1.0  0.97030  0.83610  0.00900  1.0000
  O   O118      1.0  0.47030  0.91390  0.24100  1.0000
  O   O119      1.0  0.27970  0.33610  0.74100  1.0000
  O   O120      1.0  0.77970  0.41390  0.50900  1.0000
  O   O121      1.0  0.99100  0.58610  0.22030  1.0000
  O   O122      1.0  0.75900  0.66390  0.72030  1.0000
  O   O123      1.0  0.25900  0.08610  0.52970  1.0000
  O   O124      1.0  0.49100  0.16390  0.02970  1.0000
  O   O125      1.0  0.72030  0.49100  0.58610  1.0000
  O   O126      1.0  0.22030  0.25900  0.66390  1.0000
  O   O127      1.0  0.02970  0.75900  0.08610  1.0000
  O   O128      1.0  0.52970  0.99100  0.16390  1.0000
  O   O129      1.0  0.08610  0.22030  0.49100  1.0000
  O   O130      1.0  0.16390  0.72030  0.25900  1.0000
  O   O131      1.0  0.58610  0.52970  0.75900  1.0000
  O   O132      1.0  0.66390  0.02970  0.99100  1.0000
  O   O133      1.0  0.33610  0.24100  0.77970  1.0000
  O   O134      1.0  0.41390  0.00900  0.27970  1.0000
  O   O135      1.0  0.83610  0.50900  0.47030  1.0000
  O   O136      1.0  0.91390  0.74100  0.97030  1.0000
  O   O137      1.0  0.24100  0.97030  0.41390  1.0000
  O   O138      1.0  0.00900  0.47030  0.33610  1.0000
  O   O139      1.0  0.50900  0.27970  0.91390  1.0000
  O   O140      1.0  0.74100  0.77970  0.83610  1.0000
  O   O141      1.0  0.97030  0.33610  0.50900  1.0000
  O   O142      1.0  0.47030  0.41390  0.74100  1.0000
  O   O143      1.0  0.27970  0.83610  0.24100  1.0000
  O   O144      1.0  0.77970  0.91390  0.00900  1.0000
  O   O145      1.0  0.49100  0.08610  0.22030  1.0000
  O   O146      1.0  0.25900  0.16390  0.72030  1.0000
  O   O147      1.0  0.75900  0.58610  0.52970  1.0000
  O   O148      1.0  0.99100  0.66390  0.02970  1.0000
  O   O149      1.0  0.22030  0.99100  0.58610  1.0000
  O   O150      1.0  0.72030  0.75900  0.66390  1.0000
  O   O151      1.0  0.52970  0.25900  0.08610  1.0000
  O   O152      1.0  0.02970  0.49100  0.16390  1.0000
  O   O153      1.0  0.58610  0.72030  0.49100  1.0000
  O   O154      1.0  0.66390  0.22030  0.25900  1.0000
  O   O155      1.0  0.08610  0.02970  0.75900  1.0000
  O   O156      1.0  0.16390  0.52970  0.99100  1.0000
  O   O157      1.0  0.83610  0.74100  0.77970  1.0000
  O   O158      1.0  0.91390  0.50900  0.27970  1.0000
  O   O159      1.0  0.33610  0.00900  0.47030  1.0000
  O   O160      1.0  0.41390  0.24100  0.97030  1.0000
  O   O161      1.0  0.74100  0.47030  0.41390  1.0000
  O   O162      1.0  0.50900  0.97030  0.33610  1.0000
  O   O163      1.0  0.00900  0.77970  0.91390  1.0000
  O   O164      1.0  0.24100  0.27970  0.83610  1.0000
  O   O165      1.0  0.47030  0.83610  0.50900  1.0000
  O   O166      1.0  0.97030  0.91390  0.74100  1.0000
  O   O167      1.0  0.77970  0.33610  0.24100  1.0000
  O   O168      1.0  0.27970  0.41390  0.00900  1.0000
  O   O169      1.0  0.49100  0.58610  0.72030  1.0000
  O   O170      1.0  0.25900  0.66390  0.22030  1.0000
  O   O171      1.0  0.75900  0.08610  0.02970  1.0000
  O   O172      1.0  0.99100  0.16390  0.52970  1.0000
  O   O173      1.0  0.22030  0.49100  0.08610  1.0000
  O   O174      1.0  0.72030  0.25900  0.16390  1.0000
  O   O175      1.0  0.52970  0.75900  0.58610  1.0000
  O   O176      1.0  0.02970  0.99100  0.66390  1.0000
  O   O177      1.0  0.58610  0.22030  0.99100  1.0000
  O   O178      1.0  0.66390  0.72030  0.75900  1.0000
  O   O179      1.0  0.08610  0.52970  0.25900  1.0000
  O   O180      1.0  0.16390  0.02970  0.49100  1.0000
  O   O181      1.0  0.83610  0.24100  0.27970  1.0000
  O   O182      1.0  0.91390  0.00900  0.77970  1.0000
  O   O183      1.0  0.33610  0.50900  0.97030  1.0000
  O   O184      1.0  0.41390  0.74100  0.47030  1.0000
  O   O185      1.0  0.74100  0.97030  0.91390  1.0000
  O   O186      1.0  0.50900  0.47030  0.83610  1.0000
  O   O187      1.0  0.00900  0.27970  0.41390  1.0000
  O   O188      1.0  0.24100  0.77970  0.33610  1.0000
  O   O189      1.0  0.47030  0.33610  0.00900  1.0000
  O   O190      1.0  0.97030  0.41390  0.24100  1.0000
  O   O191      1.0  0.77970  0.83610  0.74100  1.0000
  O   O192      1.0  0.27970  0.91390  0.50900  1.0000
  O   O193      1.0  0.01360  0.82970  0.27120  1.0000
  O   O194      1.0  0.23640  0.92030  0.77120  1.0000
  O   O195      1.0  0.73640  0.32970  0.97880  1.0000
  O   O196      1.0  0.51360  0.42030  0.47880  1.0000
  O   O197      1.0  0.27120  0.01360  0.82970  1.0000
  O   O198      1.0  0.77120  0.23640  0.92030  1.0000
  O   O199      1.0  0.97880  0.73640  0.32970  1.0000
  O   O200      1.0  0.47880  0.51360  0.42030  1.0000
  O   O201      1.0  0.82970  0.27120  0.01360  1.0000
  O   O202      1.0  0.92030  0.77120  0.23640  1.0000
  O   O203      1.0  0.32970  0.97880  0.73640  1.0000
  O   O204      1.0  0.42030  0.47880  0.51360  1.0000
  O   O205      1.0  0.57970  0.26360  0.72880  1.0000
  O   O206      1.0  0.67030  0.48640  0.22880  1.0000
  O   O207      1.0  0.07970  0.98640  0.02120  1.0000
  O   O208      1.0  0.17030  0.76360  0.52120  1.0000
  O   O209      1.0  0.76360  0.52120  0.17030  1.0000
  O   O210      1.0  0.98640  0.02120  0.07970  1.0000
  O   O211      1.0  0.48640  0.22880  0.67030  1.0000
  O   O212      1.0  0.26360  0.72880  0.57970  1.0000
  O   O213      1.0  0.02120  0.07970  0.98640  1.0000
  O   O214      1.0  0.52120  0.17030  0.76360  1.0000
  O   O215      1.0  0.72880  0.57970  0.26360  1.0000
  O   O216      1.0  0.22880  0.67030  0.48640  1.0000
  O   O217      1.0  0.01360  0.32970  0.77120  1.0000
  O   O218      1.0  0.23640  0.42030  0.27120  1.0000
  O   O219      1.0  0.73640  0.82970  0.47880  1.0000
  O   O220      1.0  0.51360  0.92030  0.97880  1.0000
  O   O221      1.0  0.27120  0.51360  0.32970  1.0000
  O   O222      1.0  0.77120  0.73640  0.42030  1.0000
  O   O223      1.0  0.97880  0.23640  0.82970  1.0000
  O   O224      1.0  0.47880  0.01360  0.92030  1.0000
  O   O225      1.0  0.82970  0.77120  0.51360  1.0000
  O   O226      1.0  0.92030  0.27120  0.73640  1.0000
  O   O227      1.0  0.32970  0.47880  0.23640  1.0000
  O   O228      1.0  0.42030  0.97880  0.01360  1.0000
  O   O229      1.0  0.57970  0.76360  0.22880  1.0000
  O   O230      1.0  0.67030  0.98640  0.72880  1.0000
  O   O231      1.0  0.07970  0.48640  0.52120  1.0000
  O   O232      1.0  0.17030  0.26360  0.02120  1.0000
  O   O233      1.0  0.76360  0.02120  0.67030  1.0000
  O   O234      1.0  0.98640  0.52120  0.57970  1.0000
  O   O235      1.0  0.48640  0.72880  0.17030  1.0000
  O   O236      1.0  0.26360  0.22880  0.07970  1.0000
  O   O237      1.0  0.02120  0.57970  0.48640  1.0000
  O   O238      1.0  0.52120  0.67030  0.26360  1.0000
  O   O239      1.0  0.72880  0.07970  0.76360  1.0000
  O   O240      1.0  0.22880  0.17030  0.98640  1.0000
  O   O241      1.0  0.51360  0.82970  0.77120  1.0000
  O   O242      1.0  0.73640  0.92030  0.27120  1.0000
  O   O243      1.0  0.23640  0.32970  0.47880  1.0000
  O   O244      1.0  0.01360  0.42030  0.97880  1.0000
  O   O245      1.0  0.77120  0.01360  0.32970  1.0000
  O   O246      1.0  0.27120  0.23640  0.42030  1.0000
  O   O247      1.0  0.47880  0.73640  0.82970  1.0000
  O   O248      1.0  0.97880  0.51360  0.92030  1.0000
  O   O249      1.0  0.32970  0.27120  0.51360  1.0000
  O   O250      1.0  0.42030  0.77120  0.73640  1.0000
  O   O251      1.0  0.82970  0.97880  0.23640  1.0000
  O   O252      1.0  0.92030  0.47880  0.01360  1.0000
  O   O253      1.0  0.07970  0.26360  0.22880  1.0000
  O   O254      1.0  0.17030  0.48640  0.72880  1.0000
  O   O255      1.0  0.57970  0.98640  0.52120  1.0000
  O   O256      1.0  0.67030  0.76360  0.02120  1.0000
  O   O257      1.0  0.26360  0.52120  0.67030  1.0000
  O   O258      1.0  0.48640  0.02120  0.57970  1.0000
  O   O259      1.0  0.98640  0.22880  0.17030  1.0000
  O   O260      1.0  0.76360  0.72880  0.07970  1.0000
  O   O261      1.0  0.52120  0.07970  0.48640  1.0000
  O   O262      1.0  0.02120  0.17030  0.26360  1.0000
  O   O263      1.0  0.22880  0.57970  0.76360  1.0000
  O   O264      1.0  0.72880  0.67030  0.98640  1.0000
  O   O265      1.0  0.51360  0.32970  0.27120  1.0000
  O   O266      1.0  0.73640  0.42030  0.77120  1.0000
  O   O267      1.0  0.23640  0.82970  0.97880  1.0000
  O   O268      1.0  0.01360  0.92030  0.47880  1.0000
  O   O269      1.0  0.77120  0.51360  0.82970  1.0000
  O   O270      1.0  0.27120  0.73640  0.92030  1.0000
  O   O271      1.0  0.47880  0.23640  0.32970  1.0000
  O   O272      1.0  0.97880  0.01360  0.42030  1.0000
  O   O273      1.0  0.32970  0.77120  0.01360  1.0000
  O   O274      1.0  0.42030  0.27120  0.23640  1.0000
  O   O275      1.0  0.82970  0.47880  0.73640  1.0000
  O   O276      1.0  0.92030  0.97880  0.51360  1.0000
  O   O277      1.0  0.07970  0.76360  0.72880  1.0000
  O   O278      1.0  0.17030  0.98640  0.22880  1.0000
  O   O279      1.0  0.57970  0.48640  0.02120  1.0000
  O   O280      1.0  0.67030  0.26360  0.52120  1.0000
  O   O281      1.0  0.26360  0.02120  0.17030  1.0000
  O   O282      1.0  0.48640  0.52120  0.07970  1.0000
  O   O283      1.0  0.98640  0.72880  0.67030  1.0000
  O   O284      1.0  0.76360  0.22880  0.57970  1.0000
  O   O285      1.0  0.52120  0.57970  0.98640  1.0000
  O   O286      1.0  0.02120  0.67030  0.76360  1.0000
  O   O287      1.0  0.22880  0.07970  0.26360  1.0000
  O   O288      1.0  0.72880  0.17030  0.48640  1.0000
  O   O289      1.0  0.98640  0.17030  0.72880  1.0000
  O   O290      1.0  0.76360  0.07970  0.22880  1.0000
  O   O291      1.0  0.26360  0.67030  0.02120  1.0000
  O   O292      1.0  0.48640  0.57970  0.52120  1.0000
  O   O293      1.0  0.72880  0.98640  0.17030  1.0000
  O   O294      1.0  0.22880  0.76360  0.07970  1.0000
  O   O295      1.0  0.02120  0.26360  0.67030  1.0000
  O   O296      1.0  0.52120  0.48640  0.57970  1.0000
  O   O297      1.0  0.17030  0.72880  0.98640  1.0000
  O   O298      1.0  0.07970  0.22880  0.76360  1.0000
  O   O299      1.0  0.67030  0.02120  0.26360  1.0000
  O   O300      1.0  0.57970  0.52120  0.48640  1.0000
  O   O301      1.0  0.42030  0.73640  0.27120  1.0000
  O   O302      1.0  0.32970  0.51360  0.77120  1.0000
  O   O303      1.0  0.92030  0.01360  0.97880  1.0000
  O   O304      1.0  0.82970  0.23640  0.47880  1.0000
  O   O305      1.0  0.23640  0.47880  0.82970  1.0000
  O   O306      1.0  0.01360  0.97880  0.92030  1.0000
  O   O307      1.0  0.51360  0.77120  0.32970  1.0000
  O   O308      1.0  0.73640  0.27120  0.42030  1.0000
  O   O309      1.0  0.97880  0.92030  0.01360  1.0000
  O   O310      1.0  0.47880  0.82970  0.23640  1.0000
  O   O311      1.0  0.27120  0.42030  0.73640  1.0000
  O   O312      1.0  0.77120  0.32970  0.51360  1.0000
  O   O313      1.0  0.98640  0.67030  0.22880  1.0000
  O   O314      1.0  0.76360  0.57970  0.72880  1.0000
  O   O315      1.0  0.26360  0.17030  0.52120  1.0000
  O   O316      1.0  0.48640  0.07970  0.02120  1.0000
  O   O317      1.0  0.72880  0.48640  0.67030  1.0000
  O   O318      1.0  0.22880  0.26360  0.57970  1.0000
  O   O319      1.0  0.02120  0.76360  0.17030  1.0000
  O   O320      1.0  0.52120  0.98640  0.07970  1.0000
  O   O321      1.0  0.17030  0.22880  0.48640  1.0000
  O   O322      1.0  0.07970  0.72880  0.26360  1.0000
  O   O323      1.0  0.67030  0.52120  0.76360  1.0000
  O   O324      1.0  0.57970  0.02120  0.98640  1.0000
  O   O325      1.0  0.42030  0.23640  0.77120  1.0000
  O   O326      1.0  0.32970  0.01360  0.27120  1.0000
  O   O327      1.0  0.92030  0.51360  0.47880  1.0000
  O   O328      1.0  0.82970  0.73640  0.97880  1.0000
  O   O329      1.0  0.23640  0.97880  0.32970  1.0000
  O   O330      1.0  0.01360  0.47880  0.42030  1.0000
  O   O331      1.0  0.51360  0.27120  0.82970  1.0000
  O   O332      1.0  0.73640  0.77120  0.92030  1.0000
  O   O333      1.0  0.97880  0.42030  0.51360  1.0000
  O   O334      1.0  0.47880  0.32970  0.73640  1.0000
  O   O335      1.0  0.27120  0.92030  0.23640  1.0000
  O   O336      1.0  0.77120  0.82970  0.01360  1.0000
  O   O337      1.0  0.48640  0.17030  0.22880  1.0000
  O   O338      1.0  0.26360  0.07970  0.72880  1.0000
  O   O339      1.0  0.76360  0.67030  0.52120  1.0000
  O   O340      1.0  0.98640  0.57970  0.02120  1.0000
  O   O341      1.0  0.22880  0.98640  0.67030  1.0000
  O   O342      1.0  0.72880  0.76360  0.57970  1.0000
  O   O343      1.0  0.52120  0.26360  0.17030  1.0000
  O   O344      1.0  0.02120  0.48640  0.07970  1.0000
  O   O345      1.0  0.67030  0.72880  0.48640  1.0000
  O   O346      1.0  0.57970  0.22880  0.26360  1.0000
  O   O347      1.0  0.17030  0.02120  0.76360  1.0000
  O   O348      1.0  0.07970  0.52120  0.98640  1.0000
  O   O349      1.0  0.92030  0.73640  0.77120  1.0000
  O   O350      1.0  0.82970  0.51360  0.27120  1.0000
  O   O351      1.0  0.42030  0.01360  0.47880  1.0000
  O   O352      1.0  0.32970  0.23640  0.97880  1.0000
  O   O353      1.0  0.73640  0.47880  0.32970  1.0000
  O   O354      1.0  0.51360  0.97880  0.42030  1.0000
  O   O355      1.0  0.01360  0.77120  0.82970  1.0000
  O   O356      1.0  0.23640  0.27120  0.92030  1.0000
  O   O357      1.0  0.47880  0.92030  0.51360  1.0000
  O   O358      1.0  0.97880  0.82970  0.73640  1.0000
  O   O359      1.0  0.77120  0.42030  0.23640  1.0000
  O   O360      1.0  0.27120  0.32970  0.01360  1.0000
  O   O361      1.0  0.48640  0.67030  0.72880  1.0000
  O   O362      1.0  0.26360  0.57970  0.22880  1.0000
  O   O363      1.0  0.76360  0.17030  0.02120  1.0000
  O   O364      1.0  0.98640  0.07970  0.52120  1.0000
  O   O365      1.0  0.22880  0.48640  0.17030  1.0000
  O   O366      1.0  0.72880  0.26360  0.07970  1.0000
  O   O367      1.0  0.52120  0.76360  0.67030  1.0000
  O   O368      1.0  0.02120  0.98640  0.57970  1.0000
  O   O369      1.0  0.67030  0.22880  0.98640  1.0000
  O   O370      1.0  0.57970  0.72880  0.76360  1.0000
  O   O371      1.0  0.17030  0.52120  0.26360  1.0000
  O   O372      1.0  0.07970  0.02120  0.48640  1.0000
  O   O373      1.0  0.92030  0.23640  0.27120  1.0000
  O   O374      1.0  0.82970  0.01360  0.77120  1.0000
  O   O375      1.0  0.42030  0.51360  0.97880  1.0000
  O   O376      1.0  0.32970  0.73640  0.47880  1.0000
  O   O377      1.0  0.73640  0.97880  0.82970  1.0000
  O   O378      1.0  0.51360  0.47880  0.92030  1.0000
  O   O379      1.0  0.01360  0.27120  0.32970  1.0000
  O   O380      1.0  0.23640  0.77120  0.42030  1.0000
  O   O381      1.0  0.47880  0.42030  0.01360  1.0000
  O   O382      1.0  0.97880  0.32970  0.23640  1.0000
  O   O383      1.0  0.77120  0.92030  0.73640  1.0000
  O   O384      1.0  0.27120  0.82970  0.51360  1.0000
  O   O385      1.0  0.00000  0.93360  0.18360  1.0000
  O   O386      1.0  0.25000  0.81640  0.68360  1.0000
  O   O387      1.0  0.75000  0.43360  0.06640  1.0000
  O   O388      1.0  0.50000  0.31640  0.56640  1.0000
  O   O389      1.0  0.18360  0.00000  0.93360  1.0000
  O   O390      1.0  0.68360  0.25000  0.81640  1.0000
  O   O391      1.0  0.06640  0.75000  0.43360  1.0000
  O   O392      1.0  0.56640  0.50000  0.31640  1.0000
  O   O393      1.0  0.93360  0.18360  0.00000  1.0000
  O   O394      1.0  0.81640  0.68360  0.25000  1.0000
  O   O395      1.0  0.43360  0.06640  0.75000  1.0000
  O   O396      1.0  0.31640  0.56640  0.50000  1.0000
  O   O397      1.0  0.00000  0.43360  0.68360  1.0000
  O   O398      1.0  0.25000  0.31640  0.18360  1.0000
  O   O399      1.0  0.75000  0.93360  0.56640  1.0000
  O   O400      1.0  0.50000  0.81640  0.06640  1.0000
  O   O401      1.0  0.18360  0.50000  0.43360  1.0000
  O   O402      1.0  0.68360  0.75000  0.31640  1.0000
  O   O403      1.0  0.06640  0.25000  0.93360  1.0000
  O   O404      1.0  0.56640  0.00000  0.81640  1.0000
  O   O405      1.0  0.93360  0.68360  0.50000  1.0000
  O   O406      1.0  0.81640  0.18360  0.75000  1.0000
  O   O407      1.0  0.43360  0.56640  0.25000  1.0000
  O   O408      1.0  0.31640  0.06640  0.00000  1.0000
  O   O409      1.0  0.50000  0.93360  0.68360  1.0000
  O   O410      1.0  0.75000  0.81640  0.18360  1.0000
  O   O411      1.0  0.25000  0.43360  0.56640  1.0000
  O   O412      1.0  0.00000  0.31640  0.06640  1.0000
  O   O413      1.0  0.68360  0.00000  0.43360  1.0000
  O   O414      1.0  0.18360  0.25000  0.31640  1.0000
  O   O415      1.0  0.56640  0.75000  0.93360  1.0000
  O   O416      1.0  0.06640  0.50000  0.81640  1.0000
  O   O417      1.0  0.43360  0.18360  0.50000  1.0000
  O   O418      1.0  0.31640  0.68360  0.75000  1.0000
  O   O419      1.0  0.93360  0.06640  0.25000  1.0000
  O   O420      1.0  0.81640  0.56640  0.00000  1.0000
  O   O421      1.0  0.50000  0.43360  0.18360  1.0000
  O   O422      1.0  0.75000  0.31640  0.68360  1.0000
  O   O423      1.0  0.25000  0.93360  0.06640  1.0000
  O   O424      1.0  0.00000  0.81640  0.56640  1.0000
  O   O425      1.0  0.68360  0.50000  0.93360  1.0000
  O   O426      1.0  0.18360  0.75000  0.81640  1.0000
  O   O427      1.0  0.56640  0.25000  0.43360  1.0000
  O   O428      1.0  0.06640  0.00000  0.31640  1.0000
  O   O429      1.0  0.43360  0.68360  0.00000  1.0000
  O   O430      1.0  0.31640  0.18360  0.25000  1.0000
  O   O431      1.0  0.93360  0.56640  0.75000  1.0000
  O   O432      1.0  0.81640  0.06640  0.50000  1.0000
  O   O433      1.0  0.00000  0.06640  0.81640  1.0000
  O   O434      1.0  0.75000  0.18360  0.31640  1.0000
  O   O435      1.0  0.25000  0.56640  0.93360  1.0000
  O   O436      1.0  0.50000  0.68360  0.43360  1.0000
  O   O437      1.0  0.81640  0.00000  0.06640  1.0000
  O   O438      1.0  0.31640  0.75000  0.18360  1.0000
  O   O439      1.0  0.93360  0.25000  0.56640  1.0000
  O   O440      1.0  0.43360  0.50000  0.68360  1.0000
  O   O441      1.0  0.06640  0.81640  0.00000  1.0000
  O   O442      1.0  0.18360  0.31640  0.75000  1.0000
  O   O443      1.0  0.56640  0.93360  0.25000  1.0000
  O   O444      1.0  0.68360  0.43360  0.50000  1.0000
  O   O445      1.0  0.00000  0.56640  0.31640  1.0000
  O   O446      1.0  0.75000  0.68360  0.81640  1.0000
  O   O447      1.0  0.25000  0.06640  0.43360  1.0000
  O   O448      1.0  0.50000  0.18360  0.93360  1.0000
  O   O449      1.0  0.81640  0.50000  0.56640  1.0000
  O   O450      1.0  0.31640  0.25000  0.68360  1.0000
  O   O451      1.0  0.93360  0.75000  0.06640  1.0000
  O   O452      1.0  0.43360  0.00000  0.18360  1.0000
  O   O453      1.0  0.06640  0.31640  0.50000  1.0000
  O   O454      1.0  0.18360  0.81640  0.25000  1.0000
  O   O455      1.0  0.56640  0.43360  0.75000  1.0000
  O   O456      1.0  0.68360  0.93360  0.00000  1.0000
  O   O457      1.0  0.50000  0.06640  0.31640  1.0000
  O   O458      1.0  0.25000  0.18360  0.81640  1.0000
  O   O459      1.0  0.75000  0.56640  0.43360  1.0000
  O   O460      1.0  0.00000  0.68360  0.93360  1.0000
  O   O461      1.0  0.31640  0.00000  0.56640  1.0000
  O   O462      1.0  0.81640  0.75000  0.68360  1.0000
  O   O463      1.0  0.43360  0.25000  0.06640  1.0000
  O   O464      1.0  0.93360  0.50000  0.18360  1.0000
  O   O465      1.0  0.56640  0.81640  0.50000  1.0000
  O   O466      1.0  0.68360  0.31640  0.25000  1.0000
  O   O467      1.0  0.06640  0.93360  0.75000  1.0000
  O   O468      1.0  0.18360  0.43360  0.00000  1.0000
  O   O469      1.0  0.50000  0.56640  0.81640  1.0000
  O   O470      1.0  0.25000  0.68360  0.31640  1.0000
  O   O471      1.0  0.75000  0.06640  0.93360  1.0000
  O   O472      1.0  0.00000  0.18360  0.43360  1.0000
  O   O473      1.0  0.31640  0.50000  0.06640  1.0000
  O   O474      1.0  0.81640  0.25000  0.18360  1.0000
  O   O475      1.0  0.43360  0.75000  0.56640  1.0000
  O   O476      1.0  0.93360  0.00000  0.68360  1.0000
  O   O477      1.0  0.56640  0.31640  0.00000  1.0000
  O   O478      1.0  0.68360  0.81640  0.75000  1.0000
  O   O479      1.0  0.06640  0.43360  0.25000  1.0000
  O   O480      1.0  0.18360  0.93360  0.50000  1.0000
