data_image0
_chemical_formula_structural       C6H2C2H2C4CuN4O8
_chemical_formula_sum              "C12 H4 Cu1 N4 O8"
_cell_length_a       6.3497
_cell_length_b       8.0041
_cell_length_c       11.1477
_cell_angle_alpha    71.782
_cell_angle_beta     85.993
_cell_angle_gamma    83.431

_space_group_name_H-M_alt    "P 1"
_space_group_IT_number       1

loop_
  _space_group_symop_operation_xyz
  'x, y, z'

loop_
  _atom_site_type_symbol
  _atom_site_label
  _atom_site_symmetry_multiplicity
  _atom_site_fract_x
  _atom_site_fract_y
  _atom_site_fract_z
  _atom_site_occupancy
  C   C1        1.0  0.35410  0.52040  0.62460  1.0000
  C   C2        1.0  0.64590  0.47960  0.37540  1.0000
  C   C3        1.0  0.49760  0.59040  0.68090  1.0000
  C   C4        1.0  0.50240  0.40960  0.31910  1.0000
  C   C5        1.0  0.33650  0.86870  0.59330  1.0000
  C   C6        1.0  0.66350  0.13130  0.40670  1.0000
  H   H1        1.0  0.32580  0.99220  0.58140  1.0000
  H   H2        1.0  0.67420  0.00780  0.41860  1.0000
  C   C7        1.0  0.19290  0.80170  0.53590  1.0000
  C   C8        1.0  0.80710  0.19830  0.46410  1.0000
  H   H3        1.0  0.08730  0.87980  0.48450  1.0000
  H   H4        1.0  0.91270  0.12020  0.51550  1.0000
  C   C9        1.0  0.34860  0.32740  0.63690  1.0000
  C   C10       1.0  0.65140  0.67260  0.36310  1.0000
  C   C11       1.0  0.66900  0.47770  0.76860  1.0000
  C   C12       1.0  0.33100  0.52230  0.23140  1.0000
  Cu  Cu1       1.0  0.00000  0.50000  0.50000  1.0000
  N   N1        1.0  0.20270  0.63000  0.55234  1.0000
  N   N2        1.0  0.79730  0.37000  0.44766  1.0000
  N   N3        1.0  0.48880  0.76370  0.66484  1.0000
  N   N4        1.0  0.51120  0.23630  0.33516  1.0000
  O   O1        1.0  0.19360  0.29430  0.58171  1.0000
  O   O2        1.0  0.80640  0.70570  0.41829  1.0000
  O   O3        1.0  0.48640  0.21750  0.69495  1.0000
  O   O4        1.0  0.51360  0.78250  0.30505  1.0000
  O   O5        1.0  0.60690  0.40910  0.88142  1.0000
  O   O6        1.0  0.39310  0.59090  0.11858  1.0000
  O   O7        1.0  0.85400  0.47120  0.72345  1.0000
  O   O8        1.0  0.14600  0.52880  0.27655  1.0000
