data_image0
_chemical_formula_structural       CuO8N2C2H2C2H2C2H2C8
_chemical_formula_sum              "Cu1 O8 N2 C14 H6"
_cell_length_a       6.4091
_cell_length_b       8.0567
_cell_length_c       11.3265
_cell_angle_alpha    70.675
_cell_angle_beta     85.308
_cell_angle_gamma    81.872

_space_group_name_H-M_alt    "P 1"
_space_group_IT_number       1

loop_
  _space_group_symop_operation_xyz
  'x, y, z'

loop_
  _atom_site_type_symbol
  _atom_site_label
  _atom_site_symmetry_multiplicity
  _atom_site_fract_x
  _atom_site_fract_y
  _atom_site_fract_z
  _atom_site_occupancy
  Cu  Cu1       1.0  0.50000  0.50000  0.00000  1.0000
  O   O1        1.0  0.34600  0.46378  0.22638  1.0000
  O   O2        1.0  0.65400  0.53622  0.77362  1.0000
  O   O3        1.0  0.09730  0.38908  0.37970  1.0000
  O   O4        1.0  0.90270  0.61092  0.62030  1.0000
  O   O5        1.0  0.69340  0.29103  0.08351  1.0000
  O   O6        1.0  0.30660  0.70897  0.91649  1.0000
  O   O7        1.0  0.98420  0.20835  0.19554  1.0000
  O   O8        1.0  0.01580  0.79165  0.80446  1.0000
  N   N1        1.0  0.69730  0.62520  0.05168  1.0000
  N   N2        1.0  0.30270  0.37480  0.94832  1.0000
  C   C1        1.0  0.67930  0.79910  0.03181  1.0000
  C   C2        1.0  0.32070  0.20090  0.96819  1.0000
  H   H1        1.0  0.56990  0.87430  0.98120  1.0000
  H   H2        1.0  0.43010  0.12570  0.01880  1.0000
  C   C3        1.0  0.97400  0.76090  0.15705  1.0000
  C   C4        1.0  0.02600  0.23910  0.84295  1.0000
  H   H3        1.0  0.07120  0.80850  0.19220  1.0000
  H   H4        1.0  0.92880  0.19150  0.80780  1.0000
  C   C5        1.0  0.81640  0.87320  0.08334  1.0000
  C   C6        1.0  0.18360  0.12680  0.91666  1.0000
  H   H5        1.0  0.80230  0.99730  0.06840  1.0000
  H   H6        1.0  0.19770  0.00270  0.93160  1.0000
  C   C7        1.0  0.84920  0.51460  0.12450  1.0000
  C   C8        1.0  0.15080  0.48540  0.87550  1.0000
  C   C9        1.0  0.99120  0.57850  0.18003  1.0000
  C   C10       1.0  0.00880  0.42150  0.81997  1.0000
  C   C11       1.0  0.84630  0.32110  0.13756  1.0000
  C   C12       1.0  0.15370  0.67890  0.86244  1.0000
  C   C13       1.0  0.15950  0.46340  0.26837  1.0000
  C   C14       1.0  0.84050  0.53660  0.73163  1.0000
