data_image0
_chemical_formula_structural       In8O64N16C24H8C16H8C16H8C8H8C16H8C16H8C24H8C8H8C16H8C8H8C16H8C24H8C16H8C8H8C24H8C8H8C16H8C8H8C16H8C8H8C24H8C8H8C16H8C8H8
_chemical_formula_sum              "In8 O64 N16 C352 H192"
_cell_length_a       19.3403
_cell_length_b       27.6449
_cell_length_c       36.2362
_cell_angle_alpha    90
_cell_angle_beta     94.606
_cell_angle_gamma    90

_space_group_name_H-M_alt    "P 1"
_space_group_IT_number       1

loop_
  _space_group_symop_operation_xyz
  'x, y, z'

loop_
  _atom_site_type_symbol
  _atom_site_label
  _atom_site_symmetry_multiplicity
  _atom_site_fract_x
  _atom_site_fract_y
  _atom_site_fract_z
  _atom_site_occupancy
  In  In1       1.0  0.11847  0.48158  0.10239  1.0000
  In  In2       1.0  0.88153  0.48158  0.39761  1.0000
  In  In3       1.0  0.61847  0.98158  0.10239  1.0000
  In  In4       1.0  0.38153  0.98158  0.39761  1.0000
  In  In5       1.0  0.88153  0.51842  0.89761  1.0000
  In  In6       1.0  0.11847  0.51842  0.60239  1.0000
  In  In7       1.0  0.38153  0.01842  0.89761  1.0000
  In  In8       1.0  0.61847  0.01842  0.60239  1.0000
  O   O1        1.0  0.04600  0.40547  0.09420  1.0000
  O   O2        1.0  0.95400  0.40547  0.40580  1.0000
  O   O3        1.0  0.54600  0.90547  0.09420  1.0000
  O   O4        1.0  0.45400  0.90547  0.40580  1.0000
  O   O5        1.0  0.95400  0.59453  0.90580  1.0000
  O   O6        1.0  0.04600  0.59453  0.59420  1.0000
  O   O7        1.0  0.45400  0.09453  0.90580  1.0000
  O   O8        1.0  0.54600  0.09453  0.59420  1.0000
  O   O9        1.0  0.05992  0.45071  0.14414  1.0000
  O   O10       1.0  0.94008  0.45071  0.35586  1.0000
  O   O11       1.0  0.55992  0.95071  0.14414  1.0000
  O   O12       1.0  0.44008  0.95071  0.35586  1.0000
  O   O13       1.0  0.94008  0.54929  0.85586  1.0000
  O   O14       1.0  0.05992  0.54929  0.64414  1.0000
  O   O15       1.0  0.44008  0.04929  0.85586  1.0000
  O   O16       1.0  0.55992  0.04929  0.64414  1.0000
  O   O17       1.0  0.04927  0.48824  0.55844  1.0000
  O   O18       1.0  0.95073  0.48824  0.94156  1.0000
  O   O19       1.0  0.54927  0.98824  0.55844  1.0000
  O   O20       1.0  0.45073  0.98824  0.94156  1.0000
  O   O21       1.0  0.95073  0.51176  0.44156  1.0000
  O   O22       1.0  0.04927  0.51176  0.05844  1.0000
  O   O23       1.0  0.45073  0.01176  0.44156  1.0000
  O   O24       1.0  0.54927  0.01176  0.05844  1.0000
  O   O25       1.0  0.04360  0.44701  0.60983  1.0000
  O   O26       1.0  0.95640  0.44701  0.89017  1.0000
  O   O27       1.0  0.54360  0.94701  0.60983  1.0000
  O   O28       1.0  0.45640  0.94701  0.89017  1.0000
  O   O29       1.0  0.95640  0.55299  0.39017  1.0000
  O   O30       1.0  0.04360  0.55299  0.10983  1.0000
  O   O31       1.0  0.45640  0.05299  0.39017  1.0000
  O   O32       1.0  0.54360  0.05299  0.10983  1.0000
  O   O33       1.0  0.69970  0.08391  0.60944  1.0000
  O   O34       1.0  0.30030  0.08391  0.89056  1.0000
  O   O35       1.0  0.19970  0.58391  0.60944  1.0000
  O   O36       1.0  0.80030  0.58391  0.89056  1.0000
  O   O37       1.0  0.30030  0.91609  0.39056  1.0000
  O   O38       1.0  0.69970  0.91609  0.10944  1.0000
  O   O39       1.0  0.80030  0.41609  0.39056  1.0000
  O   O40       1.0  0.19970  0.41609  0.10944  1.0000
  O   O41       1.0  0.67283  0.04750  0.55759  1.0000
  O   O42       1.0  0.32717  0.04750  0.94241  1.0000
  O   O43       1.0  0.17283  0.54750  0.55759  1.0000
  O   O44       1.0  0.82717  0.54750  0.94241  1.0000
  O   O45       1.0  0.32717  0.95250  0.44241  1.0000
  O   O46       1.0  0.67283  0.95250  0.05759  1.0000
  O   O47       1.0  0.82717  0.45250  0.44241  1.0000
  O   O48       1.0  0.17283  0.45250  0.05759  1.0000
  O   O49       1.0  0.67720  0.01371  0.15028  1.0000
  O   O50       1.0  0.32280  0.01371  0.34972  1.0000
  O   O51       1.0  0.17720  0.51371  0.15028  1.0000
  O   O52       1.0  0.82280  0.51371  0.34972  1.0000
  O   O53       1.0  0.32280  0.98629  0.84972  1.0000
  O   O54       1.0  0.67720  0.98629  0.65028  1.0000
  O   O55       1.0  0.82280  0.48629  0.84972  1.0000
  O   O56       1.0  0.17720  0.48629  0.65028  1.0000
  O   O57       1.0  0.69330  0.04920  0.09801  1.0000
  O   O58       1.0  0.30670  0.04920  0.40199  1.0000
  O   O59       1.0  0.19330  0.54920  0.09801  1.0000
  O   O60       1.0  0.80670  0.54920  0.40199  1.0000
  O   O61       1.0  0.30670  0.95080  0.90199  1.0000
  O   O62       1.0  0.69330  0.95080  0.59801  1.0000
  O   O63       1.0  0.80670  0.45080  0.90199  1.0000
  O   O64       1.0  0.19330  0.45080  0.59801  1.0000
  N   N1        1.0  0.86690  0.23812  0.19650  1.0000
  N   N2        1.0  0.13310  0.23812  0.30350  1.0000
  N   N3        1.0  0.36690  0.73812  0.19650  1.0000
  N   N4        1.0  0.63310  0.73812  0.30350  1.0000
  N   N5        1.0  0.13310  0.76188  0.80350  1.0000
  N   N6        1.0  0.86690  0.76188  0.69650  1.0000
  N   N7        1.0  0.63310  0.26188  0.80350  1.0000
  N   N8        1.0  0.36690  0.26188  0.69650  1.0000
  N   N9        1.0  0.86550  0.26272  0.50932  1.0000
  N   N10       1.0  0.13450  0.26272  0.99068  1.0000
  N   N11       1.0  0.36550  0.76272  0.50932  1.0000
  N   N12       1.0  0.63450  0.76272  0.99068  1.0000
  N   N13       1.0  0.13450  0.73728  0.49068  1.0000
  N   N14       1.0  0.86550  0.73728  0.00932  1.0000
  N   N15       1.0  0.63450  0.23728  0.49068  1.0000
  N   N16       1.0  0.36550  0.23728  0.00932  1.0000
  C   C1        1.0  0.03530  0.41291  0.12694  1.0000
  C   C2        1.0  0.96470  0.41291  0.37306  1.0000
  C   C3        1.0  0.53530  0.91291  0.12694  1.0000
  C   C4        1.0  0.46470  0.91291  0.37306  1.0000
  C   C5        1.0  0.96470  0.58709  0.87306  1.0000
  C   C6        1.0  0.03530  0.58709  0.62694  1.0000
  C   C7        1.0  0.46470  0.08709  0.87306  1.0000
  C   C8        1.0  0.53530  0.08709  0.62694  1.0000
  C   C9        1.0  0.99520  0.37883  0.14871  1.0000
  C   C10       1.0  0.00480  0.37883  0.35129  1.0000
  C   C11       1.0  0.49520  0.87883  0.14871  1.0000
  C   C12       1.0  0.50480  0.87883  0.35129  1.0000
  C   C13       1.0  0.00480  0.62117  0.85129  1.0000
  C   C14       1.0  0.99520  0.62117  0.64871  1.0000
  C   C15       1.0  0.50480  0.12117  0.85129  1.0000
  C   C16       1.0  0.49520  0.12117  0.64871  1.0000
  C   C17       1.0  0.98190  0.38962  0.18469  1.0000
  C   C18       1.0  0.01810  0.38962  0.31531  1.0000
  C   C19       1.0  0.48190  0.88962  0.18469  1.0000
  C   C20       1.0  0.51810  0.88962  0.31531  1.0000
  C   C21       1.0  0.01810  0.61038  0.81531  1.0000
  C   C22       1.0  0.98190  0.61038  0.68469  1.0000
  C   C23       1.0  0.51810  0.11038  0.81531  1.0000
  C   C24       1.0  0.48190  0.11038  0.68469  1.0000
  H   H1        1.0  0.99630  0.41990  0.19500  1.0000
  H   H2        1.0  0.00370  0.41990  0.30500  1.0000
  H   H3        1.0  0.49630  0.91990  0.19500  1.0000
  H   H4        1.0  0.50370  0.91990  0.30500  1.0000
  H   H5        1.0  0.00370  0.58010  0.80500  1.0000
  H   H6        1.0  0.99630  0.58010  0.69500  1.0000
  H   H7        1.0  0.50370  0.08010  0.80500  1.0000
  H   H8        1.0  0.49630  0.08010  0.69500  1.0000
  C   C25       1.0  0.70190  0.04778  0.13270  1.0000
  C   C26       1.0  0.29810  0.04778  0.36730  1.0000
  C   C27       1.0  0.20190  0.54778  0.13270  1.0000
  C   C28       1.0  0.79810  0.54778  0.36730  1.0000
  C   C29       1.0  0.29810  0.95222  0.86730  1.0000
  C   C30       1.0  0.70190  0.95222  0.63270  1.0000
  C   C31       1.0  0.79810  0.45222  0.86730  1.0000
  C   C32       1.0  0.20190  0.45222  0.63270  1.0000
  C   C33       1.0  0.94810  0.35727  0.20584  1.0000
  C   C34       1.0  0.05190  0.35727  0.29416  1.0000
  C   C35       1.0  0.44810  0.85727  0.20584  1.0000
  C   C36       1.0  0.55190  0.85727  0.29416  1.0000
  C   C37       1.0  0.05190  0.64273  0.79416  1.0000
  C   C38       1.0  0.94810  0.64273  0.70584  1.0000
  C   C39       1.0  0.55190  0.14273  0.79416  1.0000
  C   C40       1.0  0.44810  0.14273  0.70584  1.0000
  H   H9        1.0  0.93820  0.36580  0.23030  1.0000
  H   H10       1.0  0.06180  0.36580  0.26970  1.0000
  H   H11       1.0  0.43820  0.86580  0.23030  1.0000
  H   H12       1.0  0.56180  0.86580  0.26970  1.0000
  H   H13       1.0  0.06180  0.63420  0.76970  1.0000
  H   H14       1.0  0.93820  0.63420  0.73030  1.0000
  H   H15       1.0  0.56180  0.13420  0.76970  1.0000
  H   H16       1.0  0.43820  0.13420  0.73030  1.0000
  C   C41       1.0  0.92840  0.31209  0.19169  1.0000
  C   C42       1.0  0.07160  0.31209  0.30831  1.0000
  C   C43       1.0  0.42840  0.81209  0.19169  1.0000
  C   C44       1.0  0.57160  0.81209  0.30831  1.0000
  C   C45       1.0  0.07160  0.68791  0.80831  1.0000
  C   C46       1.0  0.92840  0.68791  0.69169  1.0000
  C   C47       1.0  0.57160  0.18791  0.80831  1.0000
  C   C48       1.0  0.42840  0.18791  0.69169  1.0000
  C   C49       1.0  0.94320  0.30073  0.15529  1.0000
  C   C50       1.0  0.05680  0.30073  0.34471  1.0000
  C   C51       1.0  0.44320  0.80073  0.15529  1.0000
  C   C52       1.0  0.55680  0.80073  0.34471  1.0000
  C   C53       1.0  0.05680  0.69927  0.84471  1.0000
  C   C54       1.0  0.94320  0.69927  0.65529  1.0000
  C   C55       1.0  0.55680  0.19927  0.84471  1.0000
  C   C56       1.0  0.44320  0.19927  0.65529  1.0000
  H   H17       1.0  0.93100  0.26980  0.14530  1.0000
  H   H18       1.0  0.06900  0.26980  0.35470  1.0000
  H   H19       1.0  0.43100  0.76980  0.14530  1.0000
  H   H20       1.0  0.56900  0.76980  0.35470  1.0000
  H   H21       1.0  0.06900  0.73020  0.85470  1.0000
  H   H22       1.0  0.93100  0.73020  0.64530  1.0000
  H   H23       1.0  0.56900  0.23020  0.85470  1.0000
  H   H24       1.0  0.43100  0.23020  0.64530  1.0000
  C   C57       1.0  0.97510  0.33394  0.13406  1.0000
  C   C58       1.0  0.02490  0.33394  0.36594  1.0000
  C   C59       1.0  0.47510  0.83394  0.13406  1.0000
  C   C60       1.0  0.52490  0.83394  0.36594  1.0000
  C   C61       1.0  0.02490  0.66606  0.86594  1.0000
  C   C62       1.0  0.97510  0.66606  0.63406  1.0000
  C   C63       1.0  0.52490  0.16606  0.86594  1.0000
  C   C64       1.0  0.47510  0.16606  0.63406  1.0000
  H   H25       1.0  0.98350  0.32620  0.10930  1.0000
  H   H26       1.0  0.01650  0.32620  0.39070  1.0000
  H   H27       1.0  0.48350  0.82620  0.10930  1.0000
  H   H28       1.0  0.51650  0.82620  0.39070  1.0000
  H   H29       1.0  0.01650  0.67380  0.89070  1.0000
  H   H30       1.0  0.98350  0.67380  0.60930  1.0000
  H   H31       1.0  0.51650  0.17380  0.89070  1.0000
  H   H32       1.0  0.48350  0.17380  0.60930  1.0000
  C   C65       1.0  0.89510  0.27525  0.21453  1.0000
  C   C66       1.0  0.10490  0.27525  0.28547  1.0000
  C   C67       1.0  0.39510  0.77525  0.21453  1.0000
  C   C68       1.0  0.60490  0.77525  0.28547  1.0000
  C   C69       1.0  0.10490  0.72475  0.78547  1.0000
  C   C70       1.0  0.89510  0.72475  0.71453  1.0000
  C   C71       1.0  0.60490  0.22475  0.78547  1.0000
  C   C72       1.0  0.39510  0.22475  0.71453  1.0000
  C   C73       1.0  0.89630  0.28044  0.25294  1.0000
  C   C74       1.0  0.10370  0.28044  0.24706  1.0000
  C   C75       1.0  0.39630  0.78044  0.25294  1.0000
  C   C76       1.0  0.60370  0.78044  0.24706  1.0000
  C   C77       1.0  0.10370  0.71956  0.74706  1.0000
  C   C78       1.0  0.89630  0.71956  0.75294  1.0000
  C   C79       1.0  0.60370  0.21956  0.74706  1.0000
  C   C80       1.0  0.39630  0.21956  0.75294  1.0000
  H   H33       1.0  0.91730  0.30790  0.26490  1.0000
  H   H34       1.0  0.08270  0.30790  0.23510  1.0000
  H   H35       1.0  0.41730  0.80790  0.26490  1.0000
  H   H36       1.0  0.58270  0.80790  0.23510  1.0000
  H   H37       1.0  0.08270  0.69210  0.73510  1.0000
  H   H38       1.0  0.91730  0.69210  0.76490  1.0000
  H   H39       1.0  0.58270  0.19210  0.73510  1.0000
  H   H40       1.0  0.41730  0.19210  0.76490  1.0000
  C   C81       1.0  0.86600  0.24455  0.27330  1.0000
  C   C82       1.0  0.13400  0.24455  0.22670  1.0000
  C   C83       1.0  0.36600  0.74455  0.27330  1.0000
  C   C84       1.0  0.63400  0.74455  0.22670  1.0000
  C   C85       1.0  0.13400  0.75545  0.72670  1.0000
  C   C86       1.0  0.86600  0.75545  0.77330  1.0000
  C   C87       1.0  0.63400  0.25545  0.72670  1.0000
  C   C88       1.0  0.36600  0.25545  0.77330  1.0000
  C   C89       1.0  0.83530  0.20680  0.25410  1.0000
  C   C90       1.0  0.16470  0.20680  0.24590  1.0000
  C   C91       1.0  0.33530  0.70680  0.25410  1.0000
  C   C92       1.0  0.66470  0.70680  0.24590  1.0000
  C   C93       1.0  0.16470  0.79320  0.74590  1.0000
  C   C94       1.0  0.83530  0.79320  0.75410  1.0000
  C   C95       1.0  0.66470  0.29320  0.74590  1.0000
  C   C96       1.0  0.33530  0.29320  0.75410  1.0000
  H   H41       1.0  0.81250  0.18240  0.26700  1.0000
  H   H42       1.0  0.18750  0.18240  0.23300  1.0000
  H   H43       1.0  0.31250  0.68240  0.26700  1.0000
  H   H44       1.0  0.68750  0.68240  0.23300  1.0000
  H   H45       1.0  0.18750  0.81760  0.73300  1.0000
  H   H46       1.0  0.81250  0.81760  0.76700  1.0000
  H   H47       1.0  0.68750  0.31760  0.73300  1.0000
  H   H48       1.0  0.31250  0.31760  0.76700  1.0000
  C   C97       1.0  0.83690  0.20368  0.21611  1.0000
  C   C98       1.0  0.16310  0.20368  0.28389  1.0000
  C   C99       1.0  0.33690  0.70368  0.21611  1.0000
  C   C100      1.0  0.66310  0.70368  0.28389  1.0000
  C   C101      1.0  0.16310  0.79632  0.78389  1.0000
  C   C102      1.0  0.83690  0.79632  0.71611  1.0000
  C   C103      1.0  0.66310  0.29632  0.78389  1.0000
  C   C104      1.0  0.33690  0.29632  0.71611  1.0000
  C   C105      1.0  0.86670  0.24886  0.31430  1.0000
  C   C106      1.0  0.13330  0.24886  0.18570  1.0000
  C   C107      1.0  0.36670  0.74886  0.31430  1.0000
  C   C108      1.0  0.63330  0.74886  0.18570  1.0000
  C   C109      1.0  0.13330  0.75114  0.68570  1.0000
  C   C110      1.0  0.86670  0.75114  0.81430  1.0000
  C   C111      1.0  0.63330  0.25114  0.68570  1.0000
  C   C112      1.0  0.36670  0.25114  0.81430  1.0000
  C   C113      1.0  0.86030  0.29364  0.33122  1.0000
  C   C114      1.0  0.13970  0.29364  0.16878  1.0000
  C   C115      1.0  0.36030  0.79364  0.33122  1.0000
  C   C116      1.0  0.63970  0.79364  0.16878  1.0000
  C   C117      1.0  0.13970  0.70636  0.66878  1.0000
  C   C118      1.0  0.86030  0.70636  0.83122  1.0000
  C   C119      1.0  0.63970  0.20636  0.66878  1.0000
  C   C120      1.0  0.36030  0.20636  0.83122  1.0000
  H   H49       1.0  0.85650  0.32210  0.31650  1.0000
  H   H50       1.0  0.14350  0.32210  0.18350  1.0000
  H   H51       1.0  0.35650  0.82210  0.31650  1.0000
  H   H52       1.0  0.64350  0.82210  0.18350  1.0000
  H   H53       1.0  0.14350  0.67790  0.68350  1.0000
  H   H54       1.0  0.85650  0.67790  0.81650  1.0000
  H   H55       1.0  0.64350  0.17790  0.68350  1.0000
  H   H56       1.0  0.35650  0.17790  0.81650  1.0000
  C   C121      1.0  0.85930  0.29706  0.36981  1.0000
  C   C122      1.0  0.14070  0.29706  0.13019  1.0000
  C   C123      1.0  0.35930  0.79706  0.36981  1.0000
  C   C124      1.0  0.64070  0.79706  0.13019  1.0000
  C   C125      1.0  0.14070  0.70294  0.63019  1.0000
  C   C126      1.0  0.85930  0.70294  0.86981  1.0000
  C   C127      1.0  0.64070  0.20294  0.63019  1.0000
  C   C128      1.0  0.35930  0.20294  0.86981  1.0000
  H   H57       1.0  0.85460  0.32780  0.38110  1.0000
  H   H58       1.0  0.14540  0.32780  0.11890  1.0000
  H   H59       1.0  0.35460  0.82780  0.38110  1.0000
  H   H60       1.0  0.64540  0.82780  0.11890  1.0000
  H   H61       1.0  0.14540  0.67220  0.61890  1.0000
  H   H62       1.0  0.85460  0.67220  0.88110  1.0000
  H   H63       1.0  0.64540  0.17220  0.61890  1.0000
  H   H64       1.0  0.35460  0.17220  0.88110  1.0000
  C   C129      1.0  0.86520  0.25559  0.39159  1.0000
  C   C130      1.0  0.13480  0.25559  0.10841  1.0000
  C   C131      1.0  0.36520  0.75559  0.39159  1.0000
  C   C132      1.0  0.63480  0.75559  0.10841  1.0000
  C   C133      1.0  0.13480  0.74441  0.60841  1.0000
  C   C134      1.0  0.86520  0.74441  0.89159  1.0000
  C   C135      1.0  0.63480  0.24441  0.60841  1.0000
  C   C136      1.0  0.36520  0.24441  0.89159  1.0000
  C   C137      1.0  0.87090  0.21000  0.37450  1.0000
  C   C138      1.0  0.12910  0.21000  0.12550  1.0000
  C   C139      1.0  0.37090  0.71000  0.37450  1.0000
  C   C140      1.0  0.62910  0.71000  0.12550  1.0000
  C   C141      1.0  0.12910  0.79000  0.62550  1.0000
  C   C142      1.0  0.87090  0.79000  0.87450  1.0000
  C   C143      1.0  0.62910  0.29000  0.62550  1.0000
  C   C144      1.0  0.37090  0.29000  0.87450  1.0000
  H   H65       1.0  0.87550  0.18140  0.38910  1.0000
  H   H66       1.0  0.12450  0.18140  0.11090  1.0000
  H   H67       1.0  0.37550  0.68140  0.38910  1.0000
  H   H68       1.0  0.62450  0.68140  0.11090  1.0000
  H   H69       1.0  0.12450  0.81860  0.61090  1.0000
  H   H70       1.0  0.87550  0.81860  0.88910  1.0000
  H   H71       1.0  0.62450  0.31860  0.61090  1.0000
  H   H72       1.0  0.37550  0.31860  0.88910  1.0000
  C   C145      1.0  0.86950  0.20741  0.33610  1.0000
  C   C146      1.0  0.13050  0.20741  0.16390  1.0000
  C   C147      1.0  0.36950  0.70741  0.33610  1.0000
  C   C148      1.0  0.63050  0.70741  0.16390  1.0000
  C   C149      1.0  0.13050  0.79259  0.66390  1.0000
  C   C150      1.0  0.86950  0.79259  0.83610  1.0000
  C   C151      1.0  0.63050  0.29259  0.66390  1.0000
  C   C152      1.0  0.36950  0.29259  0.83610  1.0000
  H   H73       1.0  0.87060  0.17660  0.32450  1.0000
  H   H74       1.0  0.12940  0.17660  0.17550  1.0000
  H   H75       1.0  0.37060  0.67660  0.32450  1.0000
  H   H76       1.0  0.62940  0.67660  0.17550  1.0000
  H   H77       1.0  0.12940  0.82340  0.67550  1.0000
  H   H78       1.0  0.87060  0.82340  0.82450  1.0000
  H   H79       1.0  0.62940  0.32340  0.67550  1.0000
  H   H80       1.0  0.37060  0.32340  0.82450  1.0000
  C   C153      1.0  0.86620  0.25792  0.43243  1.0000
  C   C154      1.0  0.13380  0.25792  0.06757  1.0000
  C   C155      1.0  0.36620  0.75792  0.43243  1.0000
  C   C156      1.0  0.63380  0.75792  0.06757  1.0000
  C   C157      1.0  0.13380  0.74208  0.56757  1.0000
  C   C158      1.0  0.86620  0.74208  0.93243  1.0000
  C   C159      1.0  0.63380  0.24208  0.56757  1.0000
  C   C160      1.0  0.36620  0.24208  0.93243  1.0000
  C   C161      1.0  0.89310  0.29762  0.45189  1.0000
  C   C162      1.0  0.10690  0.29762  0.04811  1.0000
  C   C163      1.0  0.39310  0.79762  0.45189  1.0000
  C   C164      1.0  0.60690  0.79762  0.04811  1.0000
  C   C165      1.0  0.10690  0.70238  0.54811  1.0000
  C   C166      1.0  0.89310  0.70238  0.95189  1.0000
  C   C167      1.0  0.60690  0.20238  0.54811  1.0000
  C   C168      1.0  0.39310  0.20238  0.95189  1.0000
  H   H81       1.0  0.91210  0.32400  0.43930  1.0000
  H   H82       1.0  0.08790  0.32400  0.06070  1.0000
  H   H83       1.0  0.41210  0.82400  0.43930  1.0000
  H   H84       1.0  0.58790  0.82400  0.06070  1.0000
  H   H85       1.0  0.08790  0.67600  0.56070  1.0000
  H   H86       1.0  0.91210  0.67600  0.93930  1.0000
  H   H87       1.0  0.58790  0.17600  0.56070  1.0000
  H   H88       1.0  0.41210  0.17600  0.93930  1.0000
  C   C169      1.0  0.89190  0.29849  0.49019  1.0000
  C   C170      1.0  0.10810  0.29849  0.00981  1.0000
  C   C171      1.0  0.39190  0.79849  0.49019  1.0000
  C   C172      1.0  0.60810  0.79849  0.00981  1.0000
  C   C173      1.0  0.10810  0.70151  0.50981  1.0000
  C   C174      1.0  0.89190  0.70151  0.99019  1.0000
  C   C175      1.0  0.60810  0.20151  0.50981  1.0000
  C   C176      1.0  0.39190  0.20151  0.99019  1.0000
  C   C177      1.0  0.83880  0.22444  0.49083  1.0000
  C   C178      1.0  0.16120  0.22444  0.00917  1.0000
  C   C179      1.0  0.33880  0.72444  0.49083  1.0000
  C   C180      1.0  0.66120  0.72444  0.00917  1.0000
  C   C181      1.0  0.16120  0.77556  0.50917  1.0000
  C   C182      1.0  0.83880  0.77556  0.99083  1.0000
  C   C183      1.0  0.66120  0.27556  0.50917  1.0000
  C   C184      1.0  0.33880  0.27556  0.99083  1.0000
  C   C185      1.0  0.83760  0.22108  0.45240  1.0000
  C   C186      1.0  0.16240  0.22108  0.04760  1.0000
  C   C187      1.0  0.33760  0.72108  0.45240  1.0000
  C   C188      1.0  0.66240  0.72108  0.04760  1.0000
  C   C189      1.0  0.16240  0.77892  0.54760  1.0000
  C   C190      1.0  0.83760  0.77892  0.95240  1.0000
  C   C191      1.0  0.66240  0.27892  0.54760  1.0000
  C   C192      1.0  0.33760  0.27892  0.95240  1.0000
  H   H89       1.0  0.81720  0.19370  0.43990  1.0000
  H   H90       1.0  0.18280  0.19370  0.06010  1.0000
  H   H91       1.0  0.31720  0.69370  0.43990  1.0000
  H   H92       1.0  0.68280  0.69370  0.06010  1.0000
  H   H93       1.0  0.18280  0.80630  0.56010  1.0000
  H   H94       1.0  0.81720  0.80630  0.93990  1.0000
  H   H95       1.0  0.68280  0.30630  0.56010  1.0000
  H   H96       1.0  0.31720  0.30630  0.93990  1.0000
  C   C193      1.0  0.92390  0.33977  0.51260  1.0000
  C   C194      1.0  0.07610  0.33977  0.98740  1.0000
  C   C195      1.0  0.42390  0.83977  0.51260  1.0000
  C   C196      1.0  0.57610  0.83977  0.98740  1.0000
  C   C197      1.0  0.07610  0.66023  0.48740  1.0000
  C   C198      1.0  0.92390  0.66023  0.01260  1.0000
  C   C199      1.0  0.57610  0.16023  0.48740  1.0000
  C   C200      1.0  0.42390  0.16023  0.01260  1.0000
  C   C201      1.0  0.94120  0.38288  0.49634  1.0000
  C   C202      1.0  0.05880  0.38288  0.00366  1.0000
  C   C203      1.0  0.44120  0.88288  0.49634  1.0000
  C   C204      1.0  0.55880  0.88288  0.00366  1.0000
  C   C205      1.0  0.05880  0.61712  0.50366  1.0000
  C   C206      1.0  0.94120  0.61712  0.99634  1.0000
  C   C207      1.0  0.55880  0.11712  0.50366  1.0000
  C   C208      1.0  0.44120  0.11712  0.99634  1.0000
  H   H97       1.0  0.93080  0.38730  0.47050  1.0000
  H   H98       1.0  0.06920  0.38730  0.02950  1.0000
  H   H99       1.0  0.43080  0.88730  0.47050  1.0000
  H   H100      1.0  0.56920  0.88730  0.02950  1.0000
  H   H101      1.0  0.06920  0.61270  0.52950  1.0000
  H   H102      1.0  0.93080  0.61270  0.97050  1.0000
  H   H103      1.0  0.56920  0.11270  0.52950  1.0000
  H   H104      1.0  0.43080  0.11270  0.97050  1.0000
  C   C209      1.0  0.97300  0.41949  0.51692  1.0000
  C   C210      1.0  0.02700  0.41949  0.98308  1.0000
  C   C211      1.0  0.47300  0.91949  0.51692  1.0000
  C   C212      1.0  0.52700  0.91949  0.98308  1.0000
  C   C213      1.0  0.02700  0.58051  0.48308  1.0000
  C   C214      1.0  0.97300  0.58051  0.01692  1.0000
  C   C215      1.0  0.52700  0.08051  0.48308  1.0000
  C   C216      1.0  0.47300  0.08051  0.01692  1.0000
  H   H105      1.0  0.98370  0.44900  0.50520  1.0000
  H   H106      1.0  0.01630  0.44900  0.99480  1.0000
  H   H107      1.0  0.48370  0.94900  0.50520  1.0000
  H   H108      1.0  0.51630  0.94900  0.99480  1.0000
  H   H109      1.0  0.01630  0.55100  0.49480  1.0000
  H   H110      1.0  0.98370  0.55100  0.00520  1.0000
  H   H111      1.0  0.51630  0.05100  0.49480  1.0000
  H   H112      1.0  0.48370  0.05100  0.00520  1.0000
  C   C217      1.0  0.98960  0.41406  0.55403  1.0000
  C   C218      1.0  0.01040  0.41406  0.94597  1.0000
  C   C219      1.0  0.48960  0.91406  0.55403  1.0000
  C   C220      1.0  0.51040  0.91406  0.94597  1.0000
  C   C221      1.0  0.01040  0.58594  0.44597  1.0000
  C   C222      1.0  0.98960  0.58594  0.05403  1.0000
  C   C223      1.0  0.51040  0.08594  0.44597  1.0000
  C   C224      1.0  0.48960  0.08594  0.05403  1.0000
  C   C225      1.0  0.02880  0.45160  0.57564  1.0000
  C   C226      1.0  0.97120  0.45160  0.92436  1.0000
  C   C227      1.0  0.52880  0.95160  0.57564  1.0000
  C   C228      1.0  0.47120  0.95160  0.92436  1.0000
  C   C229      1.0  0.97120  0.54840  0.42436  1.0000
  C   C230      1.0  0.02880  0.54840  0.07564  1.0000
  C   C231      1.0  0.47120  0.04840  0.42436  1.0000
  C   C232      1.0  0.52880  0.04840  0.07564  1.0000
  C   C233      1.0  0.96970  0.37085  0.57067  1.0000
  C   C234      1.0  0.03030  0.37085  0.92933  1.0000
  C   C235      1.0  0.46970  0.87085  0.57067  1.0000
  C   C236      1.0  0.53030  0.87085  0.92933  1.0000
  C   C237      1.0  0.03030  0.62915  0.42933  1.0000
  C   C238      1.0  0.96970  0.62915  0.07067  1.0000
  C   C239      1.0  0.53030  0.12915  0.42933  1.0000
  C   C240      1.0  0.46970  0.12915  0.07067  1.0000
  H   H113      1.0  0.97850  0.36690  0.59670  1.0000
  H   H114      1.0  0.02150  0.36690  0.90330  1.0000
  H   H115      1.0  0.47850  0.86690  0.59670  1.0000
  H   H116      1.0  0.52150  0.86690  0.90330  1.0000
  H   H117      1.0  0.02150  0.63310  0.40330  1.0000
  H   H118      1.0  0.97850  0.63310  0.09670  1.0000
  H   H119      1.0  0.52150  0.13310  0.40330  1.0000
  H   H120      1.0  0.47850  0.13310  0.09670  1.0000
  C   C241      1.0  0.93850  0.33502  0.55064  1.0000
  C   C242      1.0  0.06150  0.33502  0.94936  1.0000
  C   C243      1.0  0.43850  0.83502  0.55064  1.0000
  C   C244      1.0  0.56150  0.83502  0.94936  1.0000
  C   C245      1.0  0.06150  0.66498  0.44936  1.0000
  C   C246      1.0  0.93850  0.66498  0.05064  1.0000
  C   C247      1.0  0.56150  0.16498  0.44936  1.0000
  C   C248      1.0  0.43850  0.16498  0.05064  1.0000
  H   H121      1.0  0.92620  0.30600  0.56260  1.0000
  H   H122      1.0  0.07380  0.30600  0.93740  1.0000
  H   H123      1.0  0.42620  0.80600  0.56260  1.0000
  H   H124      1.0  0.57380  0.80600  0.93740  1.0000
  H   H125      1.0  0.07380  0.69400  0.43740  1.0000
  H   H126      1.0  0.92620  0.69400  0.06260  1.0000
  H   H127      1.0  0.57380  0.19400  0.43740  1.0000
  H   H128      1.0  0.42620  0.19400  0.06260  1.0000
  C   C249      1.0  0.80680  0.18579  0.51298  1.0000
  C   C250      1.0  0.19320  0.18579  0.98702  1.0000
  C   C251      1.0  0.30680  0.68579  0.51298  1.0000
  C   C252      1.0  0.69320  0.68579  0.98702  1.0000
  C   C253      1.0  0.19320  0.81421  0.48702  1.0000
  C   C254      1.0  0.80680  0.81421  0.01298  1.0000
  C   C255      1.0  0.69320  0.31421  0.48702  1.0000
  C   C256      1.0  0.30680  0.31421  0.01298  1.0000
  C   C257      1.0  0.80730  0.19072  0.55092  1.0000
  C   C258      1.0  0.19270  0.19072  0.94908  1.0000
  C   C259      1.0  0.30730  0.69072  0.55092  1.0000
  C   C260      1.0  0.69270  0.69072  0.94908  1.0000
  C   C261      1.0  0.19270  0.80928  0.44908  1.0000
  C   C262      1.0  0.80730  0.80928  0.05092  1.0000
  C   C263      1.0  0.69270  0.30928  0.44908  1.0000
  C   C264      1.0  0.30730  0.30928  0.05092  1.0000
  H   H129      1.0  0.82940  0.21790  0.56280  1.0000
  H   H130      1.0  0.17060  0.21790  0.93720  1.0000
  H   H131      1.0  0.32940  0.71790  0.56280  1.0000
  H   H132      1.0  0.67060  0.71790  0.93720  1.0000
  H   H133      1.0  0.17060  0.78210  0.43720  1.0000
  H   H134      1.0  0.82940  0.78210  0.06280  1.0000
  H   H135      1.0  0.67060  0.28210  0.43720  1.0000
  H   H136      1.0  0.32940  0.28210  0.06280  1.0000
  C   C265      1.0  0.77600  0.15629  0.57183  1.0000
  C   C266      1.0  0.22400  0.15629  0.92817  1.0000
  C   C267      1.0  0.27600  0.65629  0.57183  1.0000
  C   C268      1.0  0.72400  0.65629  0.92817  1.0000
  C   C269      1.0  0.22400  0.84371  0.42817  1.0000
  C   C270      1.0  0.77600  0.84371  0.07183  1.0000
  C   C271      1.0  0.72400  0.34371  0.42817  1.0000
  C   C272      1.0  0.27600  0.34371  0.07183  1.0000
  H   H137      1.0  0.77620  0.16030  0.59790  1.0000
  H   H138      1.0  0.22380  0.16030  0.90210  1.0000
  H   H139      1.0  0.27620  0.66030  0.59790  1.0000
  H   H140      1.0  0.72380  0.66030  0.90210  1.0000
  H   H141      1.0  0.22380  0.83970  0.40210  1.0000
  H   H142      1.0  0.77620  0.83970  0.09790  1.0000
  H   H143      1.0  0.72380  0.33970  0.40210  1.0000
  H   H144      1.0  0.27620  0.33970  0.09790  1.0000
  C   C273      1.0  0.74450  0.11640  0.55510  1.0000
  C   C274      1.0  0.25550  0.11640  0.94490  1.0000
  C   C275      1.0  0.24450  0.61640  0.55510  1.0000
  C   C276      1.0  0.75550  0.61640  0.94490  1.0000
  C   C277      1.0  0.25550  0.88360  0.44490  1.0000
  C   C278      1.0  0.74450  0.88360  0.05510  1.0000
  C   C279      1.0  0.75550  0.38360  0.44490  1.0000
  C   C280      1.0  0.24450  0.38360  0.05510  1.0000
  C   C281      1.0  0.74540  0.11123  0.51721  1.0000
  C   C282      1.0  0.25460  0.11123  0.98279  1.0000
  C   C283      1.0  0.24540  0.61123  0.51721  1.0000
  C   C284      1.0  0.75460  0.61123  0.98279  1.0000
  C   C285      1.0  0.25460  0.88877  0.48279  1.0000
  C   C286      1.0  0.74540  0.88877  0.01721  1.0000
  C   C287      1.0  0.75460  0.38877  0.48279  1.0000
  C   C288      1.0  0.24540  0.38877  0.01721  1.0000
  H   H145      1.0  0.72520  0.08340  0.50540  1.0000
  H   H146      1.0  0.27480  0.08340  0.99460  1.0000
  H   H147      1.0  0.22520  0.58340  0.50540  1.0000
  H   H148      1.0  0.77480  0.58340  0.99460  1.0000
  H   H149      1.0  0.27480  0.91660  0.49460  1.0000
  H   H150      1.0  0.72520  0.91660  0.00540  1.0000
  H   H151      1.0  0.77480  0.41660  0.49460  1.0000
  H   H152      1.0  0.22520  0.41660  0.00540  1.0000
  C   C289      1.0  0.77550  0.14645  0.49621  1.0000
  C   C290      1.0  0.22450  0.14645  0.00379  1.0000
  C   C291      1.0  0.27550  0.64645  0.49621  1.0000
  C   C292      1.0  0.72450  0.64645  0.00379  1.0000
  C   C293      1.0  0.22450  0.85355  0.50379  1.0000
  C   C294      1.0  0.77550  0.85355  0.99621  1.0000
  C   C295      1.0  0.72450  0.35355  0.50379  1.0000
  C   C296      1.0  0.27550  0.35355  0.99621  1.0000
  H   H153      1.0  0.77430  0.14310  0.47010  1.0000
  H   H154      1.0  0.22570  0.14310  0.02990  1.0000
  H   H155      1.0  0.27430  0.64310  0.47010  1.0000
  H   H156      1.0  0.72570  0.64310  0.02990  1.0000
  H   H157      1.0  0.22570  0.85690  0.52990  1.0000
  H   H158      1.0  0.77430  0.85690  0.97010  1.0000
  H   H159      1.0  0.72570  0.35690  0.52990  1.0000
  H   H160      1.0  0.27430  0.35690  0.97010  1.0000
  C   C297      1.0  0.70370  0.08124  0.57534  1.0000
  C   C298      1.0  0.29630  0.08124  0.92466  1.0000
  C   C299      1.0  0.20370  0.58124  0.57534  1.0000
  C   C300      1.0  0.79630  0.58124  0.92466  1.0000
  C   C301      1.0  0.29630  0.91876  0.42466  1.0000
  C   C302      1.0  0.70370  0.91876  0.07534  1.0000
  C   C303      1.0  0.79630  0.41876  0.42466  1.0000
  C   C304      1.0  0.20370  0.41876  0.07534  1.0000
  C   C305      1.0  0.80370  0.16270  0.19455  1.0000
  C   C306      1.0  0.19630  0.16270  0.30545  1.0000
  C   C307      1.0  0.30370  0.66270  0.19455  1.0000
  C   C308      1.0  0.69630  0.66270  0.30545  1.0000
  C   C309      1.0  0.19630  0.83730  0.80545  1.0000
  C   C310      1.0  0.80370  0.83730  0.69455  1.0000
  C   C311      1.0  0.69630  0.33730  0.80545  1.0000
  C   C312      1.0  0.30370  0.33730  0.69455  1.0000
  C   C313      1.0  0.77830  0.12270  0.21158  1.0000
  C   C314      1.0  0.22170  0.12270  0.28842  1.0000
  C   C315      1.0  0.27830  0.62270  0.21158  1.0000
  C   C316      1.0  0.72170  0.62270  0.28842  1.0000
  C   C317      1.0  0.22170  0.87730  0.78842  1.0000
  C   C318      1.0  0.77830  0.87730  0.71158  1.0000
  C   C319      1.0  0.72170  0.37730  0.78842  1.0000
  C   C320      1.0  0.27830  0.37730  0.71158  1.0000
  H   H161      1.0  0.78300  0.12070  0.23780  1.0000
  H   H162      1.0  0.21700  0.12070  0.26220  1.0000
  H   H163      1.0  0.28300  0.62070  0.23780  1.0000
  H   H164      1.0  0.71700  0.62070  0.26220  1.0000
  H   H165      1.0  0.21700  0.87930  0.76220  1.0000
  H   H166      1.0  0.78300  0.87930  0.73780  1.0000
  H   H167      1.0  0.71700  0.37930  0.76220  1.0000
  H   H168      1.0  0.28300  0.37930  0.73780  1.0000
  C   C321      1.0  0.74620  0.08560  0.19174  1.0000
  C   C322      1.0  0.25380  0.08560  0.30826  1.0000
  C   C323      1.0  0.24620  0.58560  0.19174  1.0000
  C   C324      1.0  0.75380  0.58560  0.30826  1.0000
  C   C325      1.0  0.25380  0.91440  0.80826  1.0000
  C   C326      1.0  0.74620  0.91440  0.69174  1.0000
  C   C327      1.0  0.75380  0.41440  0.80826  1.0000
  C   C328      1.0  0.24620  0.41440  0.69174  1.0000
  H   H169      1.0  0.72800  0.05900  0.20440  1.0000
  H   H170      1.0  0.27200  0.05900  0.29560  1.0000
  H   H171      1.0  0.22800  0.55900  0.20440  1.0000
  H   H172      1.0  0.77200  0.55900  0.29560  1.0000
  H   H173      1.0  0.27200  0.94100  0.79560  1.0000
  H   H174      1.0  0.72800  0.94100  0.70440  1.0000
  H   H175      1.0  0.77200  0.44100  0.79560  1.0000
  H   H176      1.0  0.22800  0.44100  0.70440  1.0000
  C   C329      1.0  0.74040  0.08667  0.15355  1.0000
  C   C330      1.0  0.25960  0.08667  0.34645  1.0000
  C   C331      1.0  0.24040  0.58667  0.15355  1.0000
  C   C332      1.0  0.75960  0.58667  0.34645  1.0000
  C   C333      1.0  0.25960  0.91333  0.84645  1.0000
  C   C334      1.0  0.74040  0.91333  0.65355  1.0000
  C   C335      1.0  0.75960  0.41333  0.84645  1.0000
  C   C336      1.0  0.24040  0.41333  0.65355  1.0000
  C   C337      1.0  0.76890  0.12460  0.13594  1.0000
  C   C338      1.0  0.23110  0.12460  0.36406  1.0000
  C   C339      1.0  0.26890  0.62460  0.13594  1.0000
  C   C340      1.0  0.73110  0.62460  0.36406  1.0000
  C   C341      1.0  0.23110  0.87540  0.86406  1.0000
  C   C342      1.0  0.76890  0.87540  0.63594  1.0000
  C   C343      1.0  0.73110  0.37540  0.86406  1.0000
  C   C344      1.0  0.26890  0.37540  0.63594  1.0000
  H   H177      1.0  0.76830  0.12460  0.10970  1.0000
  H   H178      1.0  0.23170  0.12460  0.39030  1.0000
  H   H179      1.0  0.26830  0.62460  0.10970  1.0000
  H   H180      1.0  0.73170  0.62460  0.39030  1.0000
  H   H181      1.0  0.23170  0.87540  0.89030  1.0000
  H   H182      1.0  0.76830  0.87540  0.60970  1.0000
  H   H183      1.0  0.73170  0.37540  0.89030  1.0000
  H   H184      1.0  0.26830  0.37540  0.60970  1.0000
  C   C345      1.0  0.79880  0.16330  0.15630  1.0000
  C   C346      1.0  0.20120  0.16330  0.34370  1.0000
  C   C347      1.0  0.29880  0.66330  0.15630  1.0000
  C   C348      1.0  0.70120  0.66330  0.34370  1.0000
  C   C349      1.0  0.20120  0.83670  0.84370  1.0000
  C   C350      1.0  0.79880  0.83670  0.65630  1.0000
  C   C351      1.0  0.70120  0.33670  0.84370  1.0000
  C   C352      1.0  0.29880  0.33670  0.65630  1.0000
  H   H185      1.0  0.81600  0.19030  0.14370  1.0000
  H   H186      1.0  0.18400  0.19030  0.35630  1.0000
  H   H187      1.0  0.31600  0.69030  0.14370  1.0000
  H   H188      1.0  0.68400  0.69030  0.35630  1.0000
  H   H189      1.0  0.18400  0.80970  0.85630  1.0000
  H   H190      1.0  0.81600  0.80970  0.64370  1.0000
  H   H191      1.0  0.68400  0.30970  0.85630  1.0000
  H   H192      1.0  0.31600  0.30970  0.64370  1.0000
