data_image0
_chemical_formula_structural       Sm4O32N4C12H4C12H4C8H4C4H8C8H4C4H4C12H4C4H4C4H8C8H4C4H4C12H4C4H4
_chemical_formula_sum              "Sm4 O32 N4 C96 H60"
_cell_length_a       15.709
_cell_length_b       9.8734
_cell_length_c       21.052
_cell_angle_alpha    90
_cell_angle_beta     107.544
_cell_angle_gamma    90

_space_group_name_H-M_alt    "P 1"
_space_group_IT_number       1

loop_
  _space_group_symop_operation_xyz
  'x, y, z'

loop_
  _atom_site_type_symbol
  _atom_site_label
  _atom_site_symmetry_multiplicity
  _atom_site_fract_x
  _atom_site_fract_y
  _atom_site_fract_z
  _atom_site_occupancy
  Sm  Sm1       1.0  0.39377  0.04141  0.53434  1.0000
  Sm  Sm2       1.0  0.60623  0.04141  0.96566  1.0000
  Sm  Sm3       1.0  0.60623  0.95859  0.46566  1.0000
  Sm  Sm4       1.0  0.39377  0.95859  0.03434  1.0000
  O   O1        1.0  0.39111  0.16990  0.43771  1.0000
  O   O2        1.0  0.60889  0.16990  0.06229  1.0000
  O   O3        1.0  0.60889  0.83010  0.56229  1.0000
  O   O4        1.0  0.39111  0.83010  0.93771  1.0000
  O   O5        1.0  0.49356  0.09040  0.39314  1.0000
  O   O6        1.0  0.50644  0.09040  0.10686  1.0000
  O   O7        1.0  0.50644  0.90960  0.60686  1.0000
  O   O8        1.0  0.49356  0.90960  0.89314  1.0000
  O   O9        1.0  0.37655  0.94770  0.14918  1.0000
  O   O10       1.0  0.62345  0.94770  0.35082  1.0000
  O   O11       1.0  0.62345  0.05230  0.85082  1.0000
  O   O12       1.0  0.37655  0.05230  0.64918  1.0000
  O   O13       1.0  0.31342  0.12060  0.08644  1.0000
  O   O14       1.0  0.68658  0.12060  0.41356  1.0000
  O   O15       1.0  0.68658  0.87940  0.91356  1.0000
  O   O16       1.0  0.31342  0.87940  0.58644  1.0000
  O   O17       1.0  0.76175  0.03020  0.04253  1.0000
  O   O18       1.0  0.23825  0.03020  0.45747  1.0000
  O   O19       1.0  0.23825  0.96980  0.95747  1.0000
  O   O20       1.0  0.76175  0.96980  0.54253  1.0000
  O   O21       1.0  0.72514  0.20820  0.97666  1.0000
  O   O22       1.0  0.27486  0.20820  0.52334  1.0000
  O   O23       1.0  0.27486  0.79180  0.02334  1.0000
  O   O24       1.0  0.72514  0.79180  0.47666  1.0000
  O   O25       1.0  0.43087  0.88430  0.46450  1.0000
  O   O26       1.0  0.56913  0.88430  0.03550  1.0000
  O   O27       1.0  0.56913  0.11570  0.53550  1.0000
  O   O28       1.0  0.43087  0.11570  0.96450  1.0000
  O   O29       1.0  0.50971  0.77920  0.40877  1.0000
  O   O30       1.0  0.49029  0.77920  0.09123  1.0000
  O   O31       1.0  0.49029  0.22080  0.59123  1.0000
  O   O32       1.0  0.50971  0.22080  0.90877  1.0000
  N   N1        1.0  0.15623  0.36630  0.23564  1.0000
  N   N2        1.0  0.84377  0.36630  0.26436  1.0000
  N   N3        1.0  0.84377  0.63370  0.76436  1.0000
  N   N4        1.0  0.15623  0.63370  0.73564  1.0000
  C   C1        1.0  0.41812  0.13950  0.38897  1.0000
  C   C2        1.0  0.58188  0.13950  0.11103  1.0000
  C   C3        1.0  0.58188  0.86050  0.61103  1.0000
  C   C4        1.0  0.41812  0.86050  0.88897  1.0000
  C   C5        1.0  0.35651  0.16240  0.31946  1.0000
  C   C6        1.0  0.64349  0.16240  0.18054  1.0000
  C   C7        1.0  0.64349  0.83760  0.68054  1.0000
  C   C8        1.0  0.35651  0.83760  0.81946  1.0000
  C   C9        1.0  0.37520  0.10040  0.26541  1.0000
  C   C10       1.0  0.62480  0.10040  0.23459  1.0000
  C   C11       1.0  0.62480  0.89960  0.73459  1.0000
  C   C12       1.0  0.37520  0.89960  0.76541  1.0000
  H   H1        1.0  0.42560  0.04270  0.27220  1.0000
  H   H2        1.0  0.57440  0.04270  0.22780  1.0000
  H   H3        1.0  0.57440  0.95730  0.72780  1.0000
  H   H4        1.0  0.42560  0.95730  0.77220  1.0000
  C   C13       1.0  0.31849  0.12500  0.20154  1.0000
  C   C14       1.0  0.68151  0.12500  0.29846  1.0000
  C   C15       1.0  0.68151  0.87500  0.79846  1.0000
  C   C16       1.0  0.31849  0.87500  0.70154  1.0000
  C   C17       1.0  0.33728  0.06000  0.14263  1.0000
  C   C18       1.0  0.66272  0.06000  0.35737  1.0000
  C   C19       1.0  0.66272  0.94000  0.85737  1.0000
  C   C20       1.0  0.33728  0.94000  0.64263  1.0000
  C   C21       1.0  0.24586  0.21290  0.19171  1.0000
  C   C22       1.0  0.75414  0.21290  0.30829  1.0000
  C   C23       1.0  0.75414  0.78710  0.80829  1.0000
  C   C24       1.0  0.24586  0.78710  0.69171  1.0000
  H   H5        1.0  0.20830  0.22950  0.14770  1.0000
  H   H6        1.0  0.79170  0.22950  0.35230  1.0000
  H   H7        1.0  0.79170  0.77050  0.85230  1.0000
  H   H8        1.0  0.20830  0.77050  0.64770  1.0000
  C   C25       1.0  0.22742  0.27690  0.24556  1.0000
  C   C26       1.0  0.77258  0.27690  0.25444  1.0000
  C   C27       1.0  0.77258  0.72310  0.75444  1.0000
  C   C28       1.0  0.22742  0.72310  0.74556  1.0000
  C   C29       1.0  0.28334  0.24680  0.31008  1.0000
  C   C30       1.0  0.71666  0.24680  0.18992  1.0000
  C   C31       1.0  0.71666  0.75320  0.68992  1.0000
  C   C32       1.0  0.28334  0.75320  0.81008  1.0000
  H   H9        1.0  0.27070  0.28500  0.34770  1.0000
  H   H10       1.0  0.72930  0.28500  0.15230  1.0000
  H   H11       1.0  0.72930  0.71500  0.65230  1.0000
  H   H12       1.0  0.27070  0.71500  0.84770  1.0000
  C   C33       1.0  0.11041  0.41760  0.16924  1.0000
  C   C34       1.0  0.88959  0.41760  0.33076  1.0000
  C   C35       1.0  0.88959  0.58240  0.83076  1.0000
  C   C36       1.0  0.11041  0.58240  0.66924  1.0000
  H   H13       1.0  0.15210  0.41400  0.14220  1.0000
  H   H14       1.0  0.84790  0.41400  0.35780  1.0000
  H   H15       1.0  0.84790  0.58600  0.85780  1.0000
  H   H16       1.0  0.15210  0.58600  0.64220  1.0000
  H   H17       1.0  0.09500  0.51390  0.17300  1.0000
  H   H18       1.0  0.90500  0.51390  0.32700  1.0000
  H   H19       1.0  0.90500  0.48610  0.82700  1.0000
  H   H20       1.0  0.09500  0.48610  0.67300  1.0000
  C   C37       1.0  0.02576  0.34120  0.13256  1.0000
  C   C38       1.0  0.97424  0.34120  0.36744  1.0000
  C   C39       1.0  0.97424  0.65880  0.86744  1.0000
  C   C40       1.0  0.02576  0.65880  0.63256  1.0000
  C   C41       1.0  0.00078  0.21990  0.15570  1.0000
  C   C42       1.0  0.99922  0.21990  0.34430  1.0000
  C   C43       1.0  0.99922  0.78010  0.84430  1.0000
  C   C44       1.0  0.00078  0.78010  0.65570  1.0000
  H   H21       1.0  0.03790  0.18050  0.19560  1.0000
  H   H22       1.0  0.96210  0.18050  0.30440  1.0000
  H   H23       1.0  0.96210  0.81950  0.80440  1.0000
  H   H24       1.0  0.03790  0.81950  0.69560  1.0000
  C   C45       1.0  0.92127  0.15620  0.12029  1.0000
  C   C46       1.0  0.07873  0.15620  0.37971  1.0000
  C   C47       1.0  0.07873  0.84380  0.87971  1.0000
  C   C48       1.0  0.92127  0.84380  0.62029  1.0000
  H   H25       1.0  0.90480  0.07330  0.13630  1.0000
  H   H26       1.0  0.09520  0.07330  0.36370  1.0000
  H   H27       1.0  0.09520  0.92670  0.86370  1.0000
  H   H28       1.0  0.90480  0.92670  0.63630  1.0000
  C   C49       1.0  0.86589  0.21250  0.06185  1.0000
  C   C50       1.0  0.13411  0.21250  0.43815  1.0000
  C   C51       1.0  0.13411  0.78750  0.93815  1.0000
  C   C52       1.0  0.86589  0.78750  0.56185  1.0000
  C   C53       1.0  0.77959  0.14580  0.02504  1.0000
  C   C54       1.0  0.22041  0.14580  0.47496  1.0000
  C   C55       1.0  0.22041  0.85420  0.97496  1.0000
  C   C56       1.0  0.77959  0.85420  0.52504  1.0000
  C   C57       1.0  0.89214  0.33380  0.03911  1.0000
  C   C58       1.0  0.10786  0.33380  0.46089  1.0000
  C   C59       1.0  0.10786  0.66620  0.96089  1.0000
  C   C60       1.0  0.89214  0.66620  0.53911  1.0000
  H   H29       1.0  0.85520  0.37340  0.99920  1.0000
  H   H30       1.0  0.14480  0.37340  0.50080  1.0000
  H   H31       1.0  0.14480  0.62660  0.00080  1.0000
  H   H32       1.0  0.85520  0.62660  0.49920  1.0000
  C   C61       1.0  0.97070  0.39700  0.07359  1.0000
  C   C62       1.0  0.02930  0.39700  0.42641  1.0000
  C   C63       1.0  0.02930  0.60300  0.92641  1.0000
  C   C64       1.0  0.97070  0.60300  0.57359  1.0000
  H   H33       1.0  0.98740  0.47910  0.05710  1.0000
  H   H34       1.0  0.01260  0.47910  0.44290  1.0000
  H   H35       1.0  0.01260  0.52090  0.94290  1.0000
  H   H36       1.0  0.98740  0.52090  0.55710  1.0000
  C   C65       1.0  0.14406  0.44150  0.29137  1.0000
  C   C66       1.0  0.85594  0.44150  0.20863  1.0000
  C   C67       1.0  0.85594  0.55850  0.70863  1.0000
  C   C68       1.0  0.14406  0.55850  0.79137  1.0000
  H   H37       1.0  0.14090  0.37650  0.32640  1.0000
  H   H38       1.0  0.85910  0.37650  0.17360  1.0000
  H   H39       1.0  0.85910  0.62350  0.67360  1.0000
  H   H40       1.0  0.14090  0.62350  0.82640  1.0000
  H   H41       1.0  0.08620  0.48960  0.27630  1.0000
  H   H42       1.0  0.91380  0.48960  0.22370  1.0000
  H   H43       1.0  0.91380  0.51040  0.72370  1.0000
  H   H44       1.0  0.08620  0.51040  0.77630  1.0000
  C   C69       1.0  0.21715  0.54410  0.32178  1.0000
  C   C70       1.0  0.78285  0.54410  0.17822  1.0000
  C   C71       1.0  0.78285  0.45590  0.67822  1.0000
  C   C72       1.0  0.21715  0.45590  0.82178  1.0000
  C   C73       1.0  0.22230  0.60100  0.38266  1.0000
  C   C74       1.0  0.77770  0.60100  0.11734  1.0000
  C   C75       1.0  0.77770  0.39900  0.61734  1.0000
  C   C76       1.0  0.22230  0.39900  0.88266  1.0000
  H   H45       1.0  0.17800  0.58020  0.40350  1.0000
  H   H46       1.0  0.82200  0.58020  0.09650  1.0000
  H   H47       1.0  0.82200  0.41980  0.59650  1.0000
  H   H48       1.0  0.17800  0.41980  0.90350  1.0000
  C   C77       1.0  0.29150  0.68840  0.41387  1.0000
  C   C78       1.0  0.70850  0.68840  0.08613  1.0000
  C   C79       1.0  0.70850  0.31160  0.58613  1.0000
  C   C80       1.0  0.29150  0.31160  0.91387  1.0000
  H   H49       1.0  0.29320  0.72910  0.45510  1.0000
  H   H50       1.0  0.70680  0.72910  0.04490  1.0000
  H   H51       1.0  0.70680  0.27090  0.54490  1.0000
  H   H52       1.0  0.29320  0.27090  0.95510  1.0000
  C   C81       1.0  0.35763  0.71620  0.38531  1.0000
  C   C82       1.0  0.64237  0.71620  0.11469  1.0000
  C   C83       1.0  0.64237  0.28380  0.61469  1.0000
  C   C84       1.0  0.35763  0.28380  0.88531  1.0000
  C   C85       1.0  0.43748  0.79850  0.42147  1.0000
  C   C86       1.0  0.56252  0.79850  0.07853  1.0000
  C   C87       1.0  0.56252  0.20150  0.57853  1.0000
  C   C88       1.0  0.43748  0.20150  0.92147  1.0000
  C   C89       1.0  0.35010  0.66530  0.32266  1.0000
  C   C90       1.0  0.64990  0.66530  0.17734  1.0000
  C   C91       1.0  0.64990  0.33470  0.67734  1.0000
  C   C92       1.0  0.35010  0.33470  0.82266  1.0000
  H   H53       1.0  0.39300  0.68940  0.30100  1.0000
  H   H54       1.0  0.60700  0.68940  0.19900  1.0000
  H   H55       1.0  0.60700  0.31060  0.69900  1.0000
  H   H56       1.0  0.39300  0.31060  0.80100  1.0000
  C   C93       1.0  0.28080  0.57990  0.29140  1.0000
  C   C94       1.0  0.71920  0.57990  0.20860  1.0000
  C   C95       1.0  0.71920  0.42010  0.70860  1.0000
  C   C96       1.0  0.28080  0.42010  0.79140  1.0000
  H   H57       1.0  0.27660  0.54500  0.24850  1.0000
  H   H58       1.0  0.72340  0.54500  0.25150  1.0000
  H   H59       1.0  0.72340  0.45500  0.75150  1.0000
  H   H60       1.0  0.27660  0.45500  0.74850  1.0000
