data_image0
_chemical_formula_structural       Tb4O32N4C12H4C12H4C8H4C4H8C8H4C4H4C12H4C4H4C4H8C8H4C4H4C12H4C4H4
_chemical_formula_sum              "Tb4 O32 N4 C96 H60"
_cell_length_a       15.7666
_cell_length_b       9.7926
_cell_length_c       20.9867
_cell_angle_alpha    90
_cell_angle_beta     107.985
_cell_angle_gamma    90

_space_group_name_H-M_alt    "P 1"
_space_group_IT_number       1

loop_
  _space_group_symop_operation_xyz
  'x, y, z'

loop_
  _atom_site_type_symbol
  _atom_site_label
  _atom_site_symmetry_multiplicity
  _atom_site_fract_x
  _atom_site_fract_y
  _atom_site_fract_z
  _atom_site_occupancy
  Tb  Tb1       1.0  0.39557  0.04475  0.53369  1.0000
  Tb  Tb2       1.0  0.60443  0.04475  0.96631  1.0000
  Tb  Tb3       1.0  0.60443  0.95525  0.46631  1.0000
  Tb  Tb4       1.0  0.39557  0.95525  0.03369  1.0000
  O   O1        1.0  0.39092  0.16710  0.43620  1.0000
  O   O2        1.0  0.60908  0.16710  0.06380  1.0000
  O   O3        1.0  0.60908  0.83290  0.56380  1.0000
  O   O4        1.0  0.39092  0.83290  0.93620  1.0000
  O   O5        1.0  0.49128  0.07980  0.39155  1.0000
  O   O6        1.0  0.50872  0.07980  0.10845  1.0000
  O   O7        1.0  0.50872  0.92020  0.60845  1.0000
  O   O8        1.0  0.49128  0.92020  0.89155  1.0000
  O   O9        1.0  0.37491  0.94173  0.14561  1.0000
  O   O10       1.0  0.62509  0.94173  0.35439  1.0000
  O   O11       1.0  0.62509  0.05827  0.85439  1.0000
  O   O12       1.0  0.37491  0.05827  0.64561  1.0000
  O   O13       1.0  0.31862  0.12190  0.08441  1.0000
  O   O14       1.0  0.68138  0.12190  0.41559  1.0000
  O   O15       1.0  0.68138  0.87810  0.91559  1.0000
  O   O16       1.0  0.31862  0.87810  0.58441  1.0000
  O   O17       1.0  0.75835  0.03440  0.03989  1.0000
  O   O18       1.0  0.24165  0.03440  0.46011  1.0000
  O   O19       1.0  0.24165  0.96560  0.96011  1.0000
  O   O20       1.0  0.75835  0.96560  0.53989  1.0000
  O   O21       1.0  0.71766  0.21790  0.97692  1.0000
  O   O22       1.0  0.28234  0.21790  0.52308  1.0000
  O   O23       1.0  0.28234  0.78210  0.02308  1.0000
  O   O24       1.0  0.71766  0.78210  0.47692  1.0000
  O   O25       1.0  0.42878  0.88281  0.46701  1.0000
  O   O26       1.0  0.57122  0.88281  0.03299  1.0000
  O   O27       1.0  0.57122  0.11719  0.53299  1.0000
  O   O28       1.0  0.42878  0.11719  0.96701  1.0000
  O   O29       1.0  0.50889  0.77740  0.41216  1.0000
  O   O30       1.0  0.49111  0.77740  0.08784  1.0000
  O   O31       1.0  0.49111  0.22260  0.58784  1.0000
  O   O32       1.0  0.50889  0.22260  0.91216  1.0000
  N   N1        1.0  0.15676  0.36570  0.23137  1.0000
  N   N2        1.0  0.84324  0.36570  0.26863  1.0000
  N   N3        1.0  0.84324  0.63430  0.76863  1.0000
  N   N4        1.0  0.15676  0.63430  0.73137  1.0000
  C   C1        1.0  0.41690  0.13280  0.38739  1.0000
  C   C2        1.0  0.58310  0.13280  0.11261  1.0000
  C   C3        1.0  0.58310  0.86720  0.61261  1.0000
  C   C4        1.0  0.41690  0.86720  0.88739  1.0000
  C   C5        1.0  0.35497  0.15640  0.31724  1.0000
  C   C6        1.0  0.64503  0.15640  0.18276  1.0000
  C   C7        1.0  0.64503  0.84360  0.68276  1.0000
  C   C8        1.0  0.35497  0.84360  0.81724  1.0000
  C   C9        1.0  0.37300  0.09360  0.26320  1.0000
  C   C10       1.0  0.62700  0.09360  0.23680  1.0000
  C   C11       1.0  0.62700  0.90640  0.73680  1.0000
  C   C12       1.0  0.37300  0.90640  0.76320  1.0000
  H   H1        1.0  0.42220  0.03320  0.27040  1.0000
  H   H2        1.0  0.57780  0.03320  0.22960  1.0000
  H   H3        1.0  0.57780  0.96680  0.72960  1.0000
  H   H4        1.0  0.42220  0.96680  0.77040  1.0000
  C   C13       1.0  0.31796  0.12050  0.19847  1.0000
  C   C14       1.0  0.68204  0.12050  0.30153  1.0000
  C   C15       1.0  0.68204  0.87950  0.80153  1.0000
  C   C16       1.0  0.31796  0.87950  0.69847  1.0000
  C   C17       1.0  0.33826  0.05700  0.13983  1.0000
  C   C18       1.0  0.66174  0.05700  0.36017  1.0000
  C   C19       1.0  0.66174  0.94300  0.86017  1.0000
  C   C20       1.0  0.33826  0.94300  0.63983  1.0000
  C   C21       1.0  0.24578  0.21020  0.18771  1.0000
  C   C22       1.0  0.75422  0.21020  0.31229  1.0000
  C   C23       1.0  0.75422  0.78980  0.81229  1.0000
  C   C24       1.0  0.24578  0.78980  0.68771  1.0000
  H   H5        1.0  0.20920  0.22840  0.14330  1.0000
  H   H6        1.0  0.79080  0.22840  0.35670  1.0000
  H   H7        1.0  0.79080  0.77160  0.85670  1.0000
  H   H8        1.0  0.20920  0.77160  0.64330  1.0000
  C   C25       1.0  0.22665  0.27340  0.24158  1.0000
  C   C26       1.0  0.77335  0.27340  0.25842  1.0000
  C   C27       1.0  0.77335  0.72660  0.75842  1.0000
  C   C28       1.0  0.22665  0.72660  0.74158  1.0000
  C   C29       1.0  0.28200  0.24320  0.30718  1.0000
  C   C30       1.0  0.71800  0.24320  0.19282  1.0000
  C   C31       1.0  0.71800  0.75680  0.69282  1.0000
  C   C32       1.0  0.28200  0.75680  0.80718  1.0000
  H   H9        1.0  0.26930  0.28230  0.34460  1.0000
  H   H10       1.0  0.73070  0.28230  0.15540  1.0000
  H   H11       1.0  0.73070  0.71770  0.65540  1.0000
  H   H12       1.0  0.26930  0.71770  0.84460  1.0000
  C   C33       1.0  0.11090  0.41860  0.16496  1.0000
  C   C34       1.0  0.88910  0.41860  0.33504  1.0000
  C   C35       1.0  0.88910  0.58140  0.83504  1.0000
  C   C36       1.0  0.11090  0.58140  0.66496  1.0000
  H   H13       1.0  0.15150  0.41230  0.13730  1.0000
  H   H14       1.0  0.84850  0.41230  0.36270  1.0000
  H   H15       1.0  0.84850  0.58770  0.86270  1.0000
  H   H16       1.0  0.15150  0.58770  0.63730  1.0000
  H   H17       1.0  0.09760  0.51650  0.16900  1.0000
  H   H18       1.0  0.90240  0.51650  0.33100  1.0000
  H   H19       1.0  0.90240  0.48350  0.83100  1.0000
  H   H20       1.0  0.09760  0.48350  0.66900  1.0000
  C   C37       1.0  0.02407  0.34490  0.12867  1.0000
  C   C38       1.0  0.97593  0.34490  0.37133  1.0000
  C   C39       1.0  0.97593  0.65510  0.87133  1.0000
  C   C40       1.0  0.02407  0.65510  0.62867  1.0000
  C   C41       1.0  0.00002  0.22170  0.15149  1.0000
  C   C42       1.0  0.99998  0.22170  0.34851  1.0000
  C   C43       1.0  0.99998  0.77830  0.84851  1.0000
  C   C44       1.0  0.00002  0.77830  0.65149  1.0000
  H   H21       1.0  0.03860  0.18030  0.19070  1.0000
  H   H22       1.0  0.96140  0.18030  0.30930  1.0000
  H   H23       1.0  0.96140  0.81970  0.80930  1.0000
  H   H24       1.0  0.03860  0.81970  0.69070  1.0000
  C   C45       1.0  0.91941  0.15880  0.11703  1.0000
  C   C46       1.0  0.08059  0.15880  0.38297  1.0000
  C   C47       1.0  0.08059  0.84120  0.88297  1.0000
  C   C48       1.0  0.91941  0.84120  0.61703  1.0000
  H   H25       1.0  0.90370  0.07440  0.13270  1.0000
  H   H26       1.0  0.09630  0.07440  0.36730  1.0000
  H   H27       1.0  0.09630  0.92560  0.86730  1.0000
  H   H28       1.0  0.90370  0.92560  0.63270  1.0000
  C   C49       1.0  0.86190  0.21900  0.05986  1.0000
  C   C50       1.0  0.13810  0.21900  0.44014  1.0000
  C   C51       1.0  0.13810  0.78100  0.94014  1.0000
  C   C52       1.0  0.86190  0.78100  0.55986  1.0000
  C   C53       1.0  0.77451  0.15260  0.02365  1.0000
  C   C54       1.0  0.22549  0.15260  0.47635  1.0000
  C   C55       1.0  0.22549  0.84740  0.97635  1.0000
  C   C56       1.0  0.77451  0.84740  0.52365  1.0000
  C   C57       1.0  0.88591  0.34270  0.03703  1.0000
  C   C58       1.0  0.11409  0.34270  0.46297  1.0000
  C   C59       1.0  0.11409  0.65730  0.96297  1.0000
  C   C60       1.0  0.88591  0.65730  0.53703  1.0000
  H   H29       1.0  0.84710  0.38480  0.99810  1.0000
  H   H30       1.0  0.15290  0.38480  0.50190  1.0000
  H   H31       1.0  0.15290  0.61520  0.00190  1.0000
  H   H32       1.0  0.84710  0.61520  0.49810  1.0000
  C   C61       1.0  0.96650  0.40430  0.07123  1.0000
  C   C62       1.0  0.03350  0.40430  0.42877  1.0000
  C   C63       1.0  0.03350  0.59570  0.92877  1.0000
  C   C64       1.0  0.96650  0.59570  0.57123  1.0000
  H   H33       1.0  0.98250  0.48810  0.05520  1.0000
  H   H34       1.0  0.01750  0.48810  0.44480  1.0000
  H   H35       1.0  0.01750  0.51190  0.94480  1.0000
  H   H36       1.0  0.98250  0.51190  0.55520  1.0000
  C   C65       1.0  0.14352  0.44030  0.28722  1.0000
  C   C66       1.0  0.85648  0.44030  0.21278  1.0000
  C   C67       1.0  0.85648  0.55970  0.71278  1.0000
  C   C68       1.0  0.14352  0.55970  0.78722  1.0000
  H   H37       1.0  0.14040  0.37410  0.32210  1.0000
  H   H38       1.0  0.85960  0.37410  0.17790  1.0000
  H   H39       1.0  0.85960  0.62590  0.67790  1.0000
  H   H40       1.0  0.14040  0.62590  0.82210  1.0000
  H   H41       1.0  0.08550  0.48820  0.27160  1.0000
  H   H42       1.0  0.91450  0.48820  0.22840  1.0000
  H   H43       1.0  0.91450  0.51180  0.72840  1.0000
  H   H44       1.0  0.08550  0.51180  0.77160  1.0000
  C   C69       1.0  0.21586  0.54410  0.31862  1.0000
  C   C70       1.0  0.78414  0.54410  0.18138  1.0000
  C   C71       1.0  0.78414  0.45590  0.68138  1.0000
  C   C72       1.0  0.21586  0.45590  0.81862  1.0000
  C   C73       1.0  0.21590  0.61020  0.37715  1.0000
  C   C74       1.0  0.78410  0.61020  0.12285  1.0000
  C   C75       1.0  0.78410  0.38980  0.62285  1.0000
  C   C76       1.0  0.21590  0.38980  0.87715  1.0000
  H   H45       1.0  0.16820  0.59520  0.39500  1.0000
  H   H46       1.0  0.83180  0.59520  0.10500  1.0000
  H   H47       1.0  0.83180  0.40480  0.60500  1.0000
  H   H48       1.0  0.16820  0.40480  0.89500  1.0000
  C   C77       1.0  0.28500  0.69810  0.41002  1.0000
  C   C78       1.0  0.71500  0.69810  0.08998  1.0000
  C   C79       1.0  0.71500  0.30190  0.58998  1.0000
  C   C80       1.0  0.28500  0.30190  0.91002  1.0000
  H   H49       1.0  0.28340  0.74530  0.44920  1.0000
  H   H50       1.0  0.71660  0.74530  0.05080  1.0000
  H   H51       1.0  0.71660  0.25470  0.55080  1.0000
  H   H52       1.0  0.28340  0.25470  0.94920  1.0000
  C   C81       1.0  0.35636  0.71640  0.38516  1.0000
  C   C82       1.0  0.64364  0.71640  0.11484  1.0000
  C   C83       1.0  0.64364  0.28360  0.61484  1.0000
  C   C84       1.0  0.35636  0.28360  0.88516  1.0000
  C   C85       1.0  0.43592  0.79770  0.42352  1.0000
  C   C86       1.0  0.56408  0.79770  0.07648  1.0000
  C   C87       1.0  0.56408  0.20230  0.57648  1.0000
  C   C88       1.0  0.43592  0.20230  0.92352  1.0000
  C   C89       1.0  0.35453  0.65650  0.32498  1.0000
  C   C90       1.0  0.64547  0.65650  0.17502  1.0000
  C   C91       1.0  0.64547  0.34350  0.67502  1.0000
  C   C92       1.0  0.35453  0.34350  0.82498  1.0000
  H   H53       1.0  0.40160  0.67290  0.30660  1.0000
  H   H54       1.0  0.59840  0.67290  0.19340  1.0000
  H   H55       1.0  0.59840  0.32710  0.69340  1.0000
  H   H56       1.0  0.40160  0.32710  0.80660  1.0000
  C   C93       1.0  0.28394  0.57270  0.29160  1.0000
  C   C94       1.0  0.71606  0.57270  0.20840  1.0000
  C   C95       1.0  0.71606  0.42730  0.70840  1.0000
  C   C96       1.0  0.28394  0.42730  0.79160  1.0000
  H   H57       1.0  0.28210  0.53420  0.24970  1.0000
  H   H58       1.0  0.71790  0.53420  0.25030  1.0000
  H   H59       1.0  0.71790  0.46580  0.75030  1.0000
  H   H60       1.0  0.28210  0.46580  0.74970  1.0000
