data_image0
_chemical_formula_structural       In6O48C24H12C48H24C12H24C12H36C12H36C12H36
_chemical_formula_sum              "In6 O48 C120 H168"
_cell_length_a       12.361
_cell_length_b       12.361
_cell_length_c       37.86
_cell_angle_alpha    90
_cell_angle_beta     90
_cell_angle_gamma    120

_space_group_name_H-M_alt    "P 1"
_space_group_IT_number       1

loop_
  _space_group_symop_operation_xyz
  'x, y, z'

loop_
  _atom_site_type_symbol
  _atom_site_label
  _atom_site_symmetry_multiplicity
  _atom_site_fract_x
  _atom_site_fract_y
  _atom_site_fract_z
  _atom_site_occupancy
  In  In1       1.0  0.50668  0.49332  0.41670  1.0000
  In  In2       1.0  0.50668  0.01336  0.75003  1.0000
  In  In3       1.0  0.98664  0.49332  0.08337  1.0000
  In  In4       1.0  0.49332  0.50668  0.91670  1.0000
  In  In5       1.0  0.49332  0.98664  0.25003  1.0000
  In  In6       1.0  0.01336  0.50668  0.58337  1.0000
  O   O1        1.0  0.53470  0.83130  0.26409  1.0000
  O   O2        1.0  0.16870  0.70340  0.59742  1.0000
  O   O3        1.0  0.29660  0.46530  0.93076  1.0000
  O   O4        1.0  0.46530  0.16870  0.76409  1.0000
  O   O5        1.0  0.83130  0.29660  0.09742  1.0000
  O   O6        1.0  0.70340  0.53470  0.43076  1.0000
  O   O7        1.0  0.83130  0.53470  0.06924  1.0000
  O   O8        1.0  0.70340  0.16870  0.73591  1.0000
  O   O9        1.0  0.46530  0.29660  0.40258  1.0000
  O   O10       1.0  0.16870  0.46530  0.56924  1.0000
  O   O11       1.0  0.29660  0.83130  0.23591  1.0000
  O   O12       1.0  0.53470  0.70340  0.90258  1.0000
  O   O13       1.0  0.58640  0.54080  0.36096  1.0000
  O   O14       1.0  0.45920  0.04560  0.69429  1.0000
  O   O15       1.0  0.95440  0.41360  0.02763  1.0000
  O   O16       1.0  0.41360  0.45920  0.86096  1.0000
  O   O17       1.0  0.54080  0.95440  0.19429  1.0000
  O   O18       1.0  0.04560  0.58640  0.52763  1.0000
  O   O19       1.0  0.54080  0.58640  0.97237  1.0000
  O   O20       1.0  0.04560  0.45920  0.63904  1.0000
  O   O21       1.0  0.41360  0.95440  0.30571  1.0000
  O   O22       1.0  0.45920  0.41360  0.47237  1.0000
  O   O23       1.0  0.95440  0.54080  0.13904  1.0000
  O   O24       1.0  0.58640  0.04560  0.80571  1.0000
  O   O25       1.0  0.68060  0.02520  0.27299  1.0000
  O   O26       1.0  0.97480  0.65540  0.60632  1.0000
  O   O27       1.0  0.34460  0.31940  0.93966  1.0000
  O   O28       1.0  0.31940  0.97480  0.77299  1.0000
  O   O29       1.0  0.02520  0.34460  0.10632  1.0000
  O   O30       1.0  0.65540  0.68060  0.43966  1.0000
  O   O31       1.0  0.02520  0.68060  0.06034  1.0000
  O   O32       1.0  0.65540  0.97480  0.72701  1.0000
  O   O33       1.0  0.31940  0.34460  0.39368  1.0000
  O   O34       1.0  0.97480  0.31940  0.56034  1.0000
  O   O35       1.0  0.34460  0.02520  0.22701  1.0000
  O   O36       1.0  0.68060  0.65540  0.89368  1.0000
  O   O37       1.0  0.48140  0.62710  0.38002  1.0000
  O   O38       1.0  0.37290  0.85430  0.71335  1.0000
  O   O39       1.0  0.14570  0.51860  0.04669  1.0000
  O   O40       1.0  0.51860  0.37290  0.88002  1.0000
  O   O41       1.0  0.62710  0.14570  0.21335  1.0000
  O   O42       1.0  0.85430  0.48140  0.54669  1.0000
  O   O43       1.0  0.62710  0.48140  0.95331  1.0000
  O   O44       1.0  0.85430  0.37290  0.61998  1.0000
  O   O45       1.0  0.51860  0.14570  0.28665  1.0000
  O   O46       1.0  0.37290  0.51860  0.45331  1.0000
  O   O47       1.0  0.14570  0.62710  0.11998  1.0000
  O   O48       1.0  0.48140  0.85430  0.78665  1.0000
  C   C1        1.0  0.54580  0.61260  0.35597  1.0000
  C   C2        1.0  0.38740  0.93320  0.68930  1.0000
  C   C3        1.0  0.06680  0.45420  0.02264  1.0000
  C   C4        1.0  0.45420  0.38740  0.85597  1.0000
  C   C5        1.0  0.61260  0.06680  0.18930  1.0000
  C   C6        1.0  0.93320  0.54580  0.52264  1.0000
  C   C7        1.0  0.61260  0.54580  0.97736  1.0000
  C   C8        1.0  0.93320  0.38740  0.64403  1.0000
  C   C9        1.0  0.45420  0.06680  0.31070  1.0000
  C   C10       1.0  0.38740  0.45420  0.47736  1.0000
  C   C11       1.0  0.06680  0.61260  0.14403  1.0000
  C   C12       1.0  0.54580  0.93320  0.81070  1.0000
  C   C13       1.0  0.57770  0.69160  0.32272  1.0000
  C   C14       1.0  0.30840  0.88610  0.65605  1.0000
  C   C15       1.0  0.11390  0.42230  0.98939  1.0000
  C   C16       1.0  0.42230  0.30840  0.82272  1.0000
  C   C17       1.0  0.69160  0.11390  0.15605  1.0000
  C   C18       1.0  0.88610  0.57770  0.48939  1.0000
  C   C19       1.0  0.69160  0.57770  0.01061  1.0000
  C   C20       1.0  0.88610  0.30840  0.67728  1.0000
  C   C21       1.0  0.42230  0.11390  0.34395  1.0000
  C   C22       1.0  0.30840  0.42230  0.51061  1.0000
  C   C23       1.0  0.11390  0.69160  0.17728  1.0000
  C   C24       1.0  0.57770  0.88610  0.84395  1.0000
  H   H1        1.0  0.50740  0.70490  0.31770  1.0000
  H   H2        1.0  0.29510  0.80250  0.65103  1.0000
  H   H3        1.0  0.19750  0.49260  0.98437  1.0000
  H   H4        1.0  0.49260  0.29510  0.81770  1.0000
  H   H5        1.0  0.70490  0.19750  0.15103  1.0000
  H   H6        1.0  0.80250  0.50740  0.48437  1.0000
  H   H7        1.0  0.70490  0.50740  0.01563  1.0000
  H   H8        1.0  0.80250  0.29510  0.68230  1.0000
  H   H9        1.0  0.49260  0.19750  0.34897  1.0000
  H   H10       1.0  0.29510  0.49260  0.51563  1.0000
  H   H11       1.0  0.19750  0.70490  0.18230  1.0000
  H   H12       1.0  0.50740  0.80250  0.84897  1.0000
  C   C25       1.0  0.64210  0.90790  0.27408  1.0000
  C   C26       1.0  0.09210  0.73420  0.60741  1.0000
  C   C27       1.0  0.26580  0.35790  0.94075  1.0000
  C   C28       1.0  0.35790  0.09210  0.77408  1.0000
  C   C29       1.0  0.90790  0.26580  0.10741  1.0000
  C   C30       1.0  0.73420  0.64210  0.44075  1.0000
  C   C31       1.0  0.90790  0.64210  0.05925  1.0000
  C   C32       1.0  0.73420  0.09210  0.72592  1.0000
  C   C33       1.0  0.35790  0.26580  0.39259  1.0000
  C   C34       1.0  0.09210  0.35790  0.55925  1.0000
  C   C35       1.0  0.26580  0.90790  0.22592  1.0000
  C   C36       1.0  0.64210  0.73420  0.89259  1.0000
  C   C37       1.0  0.69510  0.82140  0.32751  1.0000
  C   C38       1.0  0.17860  0.87370  0.66084  1.0000
  C   C39       1.0  0.12630  0.30490  0.99418  1.0000
  C   C40       1.0  0.30490  0.17860  0.82751  1.0000
  C   C41       1.0  0.82140  0.12630  0.16084  1.0000
  C   C42       1.0  0.87370  0.69510  0.49418  1.0000
  C   C43       1.0  0.82140  0.69510  0.00582  1.0000
  C   C44       1.0  0.87370  0.17860  0.67249  1.0000
  C   C45       1.0  0.30490  0.12630  0.33916  1.0000
  C   C46       1.0  0.17860  0.30490  0.50582  1.0000
  C   C47       1.0  0.12630  0.82140  0.17249  1.0000
  C   C48       1.0  0.69510  0.87370  0.83916  1.0000
  C   C49       1.0  0.73110  0.86480  0.28779  1.0000
  C   C50       1.0  0.13520  0.86630  0.62112  1.0000
  C   C51       1.0  0.13370  0.26890  0.95446  1.0000
  C   C52       1.0  0.26890  0.13520  0.78779  1.0000
  C   C53       1.0  0.86480  0.13370  0.12112  1.0000
  C   C54       1.0  0.86630  0.73110  0.45446  1.0000
  C   C55       1.0  0.86480  0.73110  0.04554  1.0000
  C   C56       1.0  0.86630  0.13520  0.71221  1.0000
  C   C57       1.0  0.26890  0.13370  0.37888  1.0000
  C   C58       1.0  0.13520  0.26890  0.54554  1.0000
  C   C59       1.0  0.13370  0.86480  0.21221  1.0000
  C   C60       1.0  0.73110  0.86630  0.87888  1.0000
  C   C61       1.0  0.70060  0.74260  0.26840  1.0000
  C   C62       1.0  0.25740  0.95800  0.60173  1.0000
  C   C63       1.0  0.04200  0.29940  0.93507  1.0000
  C   C64       1.0  0.29940  0.25740  0.76840  1.0000
  C   C65       1.0  0.74260  0.04200  0.10173  1.0000
  C   C66       1.0  0.95800  0.70060  0.43507  1.0000
  C   C67       1.0  0.74260  0.70060  0.06493  1.0000
  C   C68       1.0  0.95800  0.25740  0.73160  1.0000
  C   C69       1.0  0.29940  0.04200  0.39827  1.0000
  C   C70       1.0  0.25740  0.29940  0.56493  1.0000
  C   C71       1.0  0.04200  0.74260  0.23160  1.0000
  C   C72       1.0  0.70060  0.95800  0.89827  1.0000
  H   H13       1.0  0.67090  0.74260  0.24470  1.0000
  H   H14       1.0  0.25740  0.92830  0.57803  1.0000
  H   H15       1.0  0.07170  0.32910  0.91137  1.0000
  H   H16       1.0  0.32910  0.25740  0.74470  1.0000
  H   H17       1.0  0.74260  0.07170  0.07803  1.0000
  H   H18       1.0  0.92830  0.67090  0.41137  1.0000
  H   H19       1.0  0.74260  0.67090  0.08863  1.0000
  H   H20       1.0  0.92830  0.25740  0.75530  1.0000
  H   H21       1.0  0.32910  0.07170  0.42197  1.0000
  H   H22       1.0  0.25740  0.32910  0.58863  1.0000
  H   H23       1.0  0.07170  0.74260  0.25530  1.0000
  H   H24       1.0  0.67090  0.92830  0.92197  1.0000
  H   H25       1.0  0.77480  0.73490  0.26680  1.0000
  H   H26       1.0  0.26510  0.03990  0.60013  1.0000
  H   H27       1.0  0.96010  0.22520  0.93347  1.0000
  H   H28       1.0  0.22520  0.26510  0.76680  1.0000
  H   H29       1.0  0.73490  0.96010  0.10013  1.0000
  H   H30       1.0  0.03990  0.77480  0.43347  1.0000
  H   H31       1.0  0.73490  0.77480  0.06653  1.0000
  H   H32       1.0  0.03990  0.26510  0.73320  1.0000
  H   H33       1.0  0.22520  0.96010  0.39987  1.0000
  H   H34       1.0  0.26510  0.22520  0.56653  1.0000
  H   H35       1.0  0.96010  0.73490  0.23320  1.0000
  H   H36       1.0  0.77480  0.03990  0.89987  1.0000
  C   C73       1.0  0.59920  0.63360  0.28981  1.0000
  C   C74       1.0  0.36640  0.96560  0.62314  1.0000
  C   C75       1.0  0.03440  0.40080  0.95648  1.0000
  C   C76       1.0  0.40080  0.36640  0.78981  1.0000
  C   C77       1.0  0.63360  0.03440  0.12314  1.0000
  C   C78       1.0  0.96560  0.59920  0.45648  1.0000
  C   C79       1.0  0.63360  0.59920  0.04352  1.0000
  C   C80       1.0  0.96560  0.36640  0.71019  1.0000
  C   C81       1.0  0.40080  0.03440  0.37686  1.0000
  C   C82       1.0  0.36640  0.40080  0.54352  1.0000
  C   C83       1.0  0.03440  0.63360  0.21019  1.0000
  C   C84       1.0  0.59920  0.96560  0.87686  1.0000
  H   H37       1.0  0.52280  0.58940  0.27620  1.0000
  H   H38       1.0  0.41060  0.93340  0.60953  1.0000
  H   H39       1.0  0.06660  0.47720  0.94287  1.0000
  H   H40       1.0  0.47720  0.41060  0.77620  1.0000
  H   H41       1.0  0.58940  0.06660  0.10953  1.0000
  H   H42       1.0  0.93340  0.52280  0.44287  1.0000
  H   H43       1.0  0.58940  0.52280  0.05713  1.0000
  H   H44       1.0  0.93340  0.41060  0.72380  1.0000
  H   H45       1.0  0.47720  0.06660  0.39047  1.0000
  H   H46       1.0  0.41060  0.47720  0.55713  1.0000
  H   H47       1.0  0.06660  0.58940  0.22380  1.0000
  H   H48       1.0  0.52280  0.93340  0.89047  1.0000
  H   H49       1.0  0.62670  0.57520  0.29630  1.0000
  H   H50       1.0  0.42480  0.05150  0.62963  1.0000
  H   H51       1.0  0.94850  0.37330  0.96297  1.0000
  H   H52       1.0  0.37330  0.42480  0.79630  1.0000
  H   H53       1.0  0.57520  0.94850  0.12963  1.0000
  H   H54       1.0  0.05150  0.62670  0.46297  1.0000
  H   H55       1.0  0.57520  0.62670  0.03703  1.0000
  H   H56       1.0  0.05150  0.42480  0.70370  1.0000
  H   H57       1.0  0.37330  0.94850  0.37037  1.0000
  H   H58       1.0  0.42480  0.37330  0.53703  1.0000
  H   H59       1.0  0.94850  0.57520  0.20370  1.0000
  H   H60       1.0  0.62670  0.05150  0.87037  1.0000
  C   C85       1.0  0.79800  0.80850  0.34590  1.0000
  C   C86       1.0  0.19150  0.98950  0.67923  1.0000
  C   C87       1.0  0.01050  0.20200  0.01257  1.0000
  C   C88       1.0  0.20200  0.19150  0.84590  1.0000
  C   C89       1.0  0.80850  0.01050  0.17923  1.0000
  C   C90       1.0  0.98950  0.79800  0.51257  1.0000
  C   C91       1.0  0.80850  0.79800  0.98743  1.0000
  C   C92       1.0  0.98950  0.19150  0.65410  1.0000
  C   C93       1.0  0.20200  0.01050  0.32077  1.0000
  C   C94       1.0  0.19150  0.20200  0.48743  1.0000
  C   C95       1.0  0.01050  0.80850  0.15410  1.0000
  C   C96       1.0  0.79800  0.98950  0.82077  1.0000
  H   H61       1.0  0.81610  0.75360  0.33250  1.0000
  H   H62       1.0  0.24640  0.06250  0.66583  1.0000
  H   H63       1.0  0.93750  0.18390  0.99917  1.0000
  H   H64       1.0  0.18390  0.24640  0.83250  1.0000
  H   H65       1.0  0.75360  0.93750  0.16583  1.0000
  H   H66       1.0  0.06250  0.81610  0.49917  1.0000
  H   H67       1.0  0.75360  0.81610  0.00083  1.0000
  H   H68       1.0  0.06250  0.24640  0.66750  1.0000
  H   H69       1.0  0.18390  0.93750  0.33417  1.0000
  H   H70       1.0  0.24640  0.18390  0.50083  1.0000
  H   H71       1.0  0.93750  0.75360  0.16750  1.0000
  H   H72       1.0  0.81610  0.06250  0.83417  1.0000
  H   H73       1.0  0.87190  0.88910  0.34770  1.0000
  H   H74       1.0  0.11090  0.98280  0.68103  1.0000
  H   H75       1.0  0.01720  0.12810  0.01437  1.0000
  H   H76       1.0  0.12810  0.11090  0.84770  1.0000
  H   H77       1.0  0.88910  0.01720  0.18103  1.0000
  H   H78       1.0  0.98280  0.87190  0.51437  1.0000
  H   H79       1.0  0.88910  0.87190  0.98563  1.0000
  H   H80       1.0  0.98280  0.11090  0.65230  1.0000
  H   H81       1.0  0.12810  0.01720  0.31897  1.0000
  H   H82       1.0  0.11090  0.12810  0.48563  1.0000
  H   H83       1.0  0.01720  0.88910  0.15230  1.0000
  H   H84       1.0  0.87190  0.98280  0.81897  1.0000
  H   H85       1.0  0.77060  0.77470  0.36920  1.0000
  H   H86       1.0  0.22530  0.99590  0.70253  1.0000
  H   H87       1.0  0.00410  0.22940  0.03587  1.0000
  H   H88       1.0  0.22940  0.22530  0.86920  1.0000
  H   H89       1.0  0.77470  0.00410  0.20253  1.0000
  H   H90       1.0  0.99590  0.77060  0.53587  1.0000
  H   H91       1.0  0.77470  0.77060  0.96413  1.0000
  H   H92       1.0  0.99590  0.22530  0.63080  1.0000
  H   H93       1.0  0.22940  0.00410  0.29747  1.0000
  H   H94       1.0  0.22530  0.22940  0.46413  1.0000
  H   H95       1.0  0.00410  0.77470  0.13080  1.0000
  H   H96       1.0  0.77060  0.99590  0.79747  1.0000
  C   C97       1.0  0.86630  0.96910  0.28410  1.0000
  C   C98       1.0  0.03090  0.89720  0.61743  1.0000
  C   C99       1.0  0.10280  0.13370  0.95077  1.0000
  C   C100      1.0  0.13370  0.03090  0.78410  1.0000
  C   C101      1.0  0.96910  0.10280  0.11743  1.0000
  C   C102      1.0  0.89720  0.86630  0.45077  1.0000
  C   C103      1.0  0.96910  0.86630  0.04923  1.0000
  C   C104      1.0  0.89720  0.03090  0.71590  1.0000
  C   C105      1.0  0.13370  0.10280  0.38257  1.0000
  C   C106      1.0  0.03090  0.13370  0.54923  1.0000
  C   C107      1.0  0.10280  0.96910  0.21590  1.0000
  C   C108      1.0  0.86630  0.89720  0.88257  1.0000
  H   H97       1.0  0.92080  0.94070  0.29280  1.0000
  H   H98       1.0  0.05930  0.98010  0.62613  1.0000
  H   H99       1.0  0.01990  0.07920  0.95947  1.0000
  H   H100      1.0  0.07920  0.05930  0.79280  1.0000
  H   H101      1.0  0.94070  0.01990  0.12613  1.0000
  H   H102      1.0  0.98010  0.92080  0.45947  1.0000
  H   H103      1.0  0.94070  0.92080  0.04053  1.0000
  H   H104      1.0  0.98010  0.05930  0.70720  1.0000
  H   H105      1.0  0.07920  0.01990  0.37387  1.0000
  H   H106      1.0  0.05930  0.07920  0.54053  1.0000
  H   H107      1.0  0.01990  0.94070  0.20720  1.0000
  H   H108      1.0  0.92080  0.98010  0.87387  1.0000
  H   H109      1.0  0.88450  0.99200  0.25970  1.0000
  H   H110      1.0  0.00800  0.89250  0.59303  1.0000
  H   H111      1.0  0.10750  0.11550  0.92637  1.0000
  H   H112      1.0  0.11550  0.00800  0.75970  1.0000
  H   H113      1.0  0.99200  0.10750  0.09303  1.0000
  H   H114      1.0  0.89250  0.88450  0.42637  1.0000
  H   H115      1.0  0.99200  0.88450  0.07363  1.0000
  H   H116      1.0  0.89250  0.00800  0.74030  1.0000
  H   H117      1.0  0.11550  0.10750  0.40697  1.0000
  H   H118      1.0  0.00800  0.11550  0.57363  1.0000
  H   H119      1.0  0.10750  0.99200  0.24030  1.0000
  H   H120      1.0  0.88450  0.89250  0.90697  1.0000
  H   H121      1.0  0.87880  0.04030  0.29760  1.0000
  H   H122      1.0  0.95970  0.83850  0.63093  1.0000
  H   H123      1.0  0.16150  0.12120  0.96427  1.0000
  H   H124      1.0  0.12120  0.95970  0.79760  1.0000
  H   H125      1.0  0.04030  0.16150  0.13093  1.0000
  H   H126      1.0  0.83850  0.87880  0.46427  1.0000
  H   H127      1.0  0.04030  0.87880  0.03573  1.0000
  H   H128      1.0  0.83850  0.95970  0.70240  1.0000
  H   H129      1.0  0.12120  0.16150  0.36907  1.0000
  H   H130      1.0  0.95970  0.12120  0.53573  1.0000
  H   H131      1.0  0.16150  0.04030  0.20240  1.0000
  H   H132      1.0  0.87880  0.83850  0.86907  1.0000
  C   C109      1.0  0.67190  0.90650  0.34940  1.0000
  C   C110      1.0  0.09350  0.76540  0.68273  1.0000
  C   C111      1.0  0.23460  0.32810  0.01607  1.0000
  C   C112      1.0  0.32810  0.09350  0.84940  1.0000
  C   C113      1.0  0.90650  0.23460  0.18273  1.0000
  C   C114      1.0  0.76540  0.67190  0.51607  1.0000
  C   C115      1.0  0.90650  0.67190  0.98393  1.0000
  C   C116      1.0  0.76540  0.09350  0.65060  1.0000
  C   C117      1.0  0.32810  0.23460  0.31727  1.0000
  C   C118      1.0  0.09350  0.32810  0.48393  1.0000
  C   C119      1.0  0.23460  0.90650  0.15060  1.0000
  C   C120      1.0  0.67190  0.76540  0.81727  1.0000
  H   H133      1.0  0.60750  0.91730  0.33870  1.0000
  H   H134      1.0  0.08270  0.69020  0.67203  1.0000
  H   H135      1.0  0.30980  0.39250  0.00537  1.0000
  H   H136      1.0  0.39250  0.08270  0.83870  1.0000
  H   H137      1.0  0.91730  0.30980  0.17203  1.0000
  H   H138      1.0  0.69020  0.60750  0.50537  1.0000
  H   H139      1.0  0.91730  0.60750  0.99463  1.0000
  H   H140      1.0  0.69020  0.08270  0.66130  1.0000
  H   H141      1.0  0.39250  0.30980  0.32797  1.0000
  H   H142      1.0  0.08270  0.39250  0.49463  1.0000
  H   H143      1.0  0.30980  0.91730  0.16130  1.0000
  H   H144      1.0  0.60750  0.69020  0.82797  1.0000
  H   H145      1.0  0.64590  0.87160  0.37260  1.0000
  H   H146      1.0  0.12840  0.77430  0.70593  1.0000
  H   H147      1.0  0.22570  0.35410  0.03927  1.0000
  H   H148      1.0  0.35410  0.12840  0.87260  1.0000
  H   H149      1.0  0.87160  0.22570  0.20593  1.0000
  H   H150      1.0  0.77430  0.64590  0.53927  1.0000
  H   H151      1.0  0.87160  0.64590  0.96073  1.0000
  H   H152      1.0  0.77430  0.12840  0.62740  1.0000
  H   H153      1.0  0.35410  0.22570  0.29407  1.0000
  H   H154      1.0  0.12840  0.35410  0.46073  1.0000
  H   H155      1.0  0.22570  0.87160  0.12740  1.0000
  H   H156      1.0  0.64590  0.77430  0.79407  1.0000
  H   H157      1.0  0.74720  0.98600  0.35110  1.0000
  H   H158      1.0  0.01400  0.76120  0.68443  1.0000
  H   H159      1.0  0.23880  0.25280  0.01777  1.0000
  H   H160      1.0  0.25280  0.01400  0.85110  1.0000
  H   H161      1.0  0.98600  0.23880  0.18443  1.0000
  H   H162      1.0  0.76120  0.74720  0.51777  1.0000
  H   H163      1.0  0.98600  0.74720  0.98223  1.0000
  H   H164      1.0  0.76120  0.01400  0.64890  1.0000
  H   H165      1.0  0.25280  0.23880  0.31557  1.0000
  H   H166      1.0  0.01400  0.25280  0.48223  1.0000
  H   H167      1.0  0.23880  0.98600  0.14890  1.0000
  H   H168      1.0  0.74720  0.76120  0.81557  1.0000
