data_image0
_chemical_formula_structural       Cu8Mo32C4H4C4H4C4H4C4H4C20H4C4H4C4H4C4H4C12H4C4H4C4H4C4H4C4H4C4H4C4H4C4H4C20H4C4H4C4H4C4H4C12H4C4H4C4H4C4H4N12H4N20H4N8O104Cu4Mo32C4H4C4H4C4H4C4H4C20H4C4H4C4H4C4H4C12H4C4H4C4H4C4H4N16H4N4O104Cu4C4H4C4H4C4H4C4H4C20H4C4H4C4H4C4H4C12H4C4H4C4H4C4H4N12H4N8
_chemical_formula_sum              "Cu16 Mo64 C288 H208 N80 O208"
_cell_length_a       21.155
_cell_length_b       28.507
_cell_length_c       27.46
_cell_angle_alpha    90
_cell_angle_beta     90
_cell_angle_gamma    90

_space_group_name_H-M_alt    "P 1"
_space_group_IT_number       1

loop_
  _space_group_symop_operation_xyz
  'x, y, z'

loop_
  _atom_site_type_symbol
  _atom_site_label
  _atom_site_symmetry_multiplicity
  _atom_site_fract_x
  _atom_site_fract_y
  _atom_site_fract_z
  _atom_site_occupancy
  Cu  Cu1       1.0  0.71623  0.01847  0.32208  1.0000
  Cu  Cu2       1.0  0.28377  0.98153  0.82208  1.0000
  Cu  Cu3       1.0  0.78377  0.01847  0.82208  1.0000
  Cu  Cu4       1.0  0.21623  0.98153  0.32208  1.0000
  Cu  Cu5       1.0  0.30060  0.23391  0.37395  1.0000
  Cu  Cu6       1.0  0.69940  0.76609  0.87395  1.0000
  Cu  Cu7       1.0  0.19940  0.23391  0.87395  1.0000
  Cu  Cu8       1.0  0.80060  0.76609  0.37395  1.0000
  Mo  Mo1       1.0  0.41811  0.11082  0.22556  1.0000
  Mo  Mo2       1.0  0.58189  0.88918  0.72556  1.0000
  Mo  Mo3       1.0  0.08189  0.11082  0.72556  1.0000
  Mo  Mo4       1.0  0.91811  0.88918  0.22556  1.0000
  Mo  Mo5       1.0  0.50821  0.21076  0.27598  1.0000
  Mo  Mo6       1.0  0.49179  0.78924  0.77598  1.0000
  Mo  Mo7       1.0  0.99179  0.21076  0.77598  1.0000
  Mo  Mo8       1.0  0.00821  0.78924  0.27598  1.0000
  Mo  Mo9       1.0  0.56905  0.23405  0.38274  1.0000
  Mo  Mo10      1.0  0.43095  0.76595  0.88274  1.0000
  Mo  Mo11      1.0  0.93095  0.23405  0.88274  1.0000
  Mo  Mo12      1.0  0.06905  0.76595  0.38274  1.0000
  Mo  Mo13      1.0  0.58733  0.11995  0.33566  1.0000
  Mo  Mo14      1.0  0.41267  0.88005  0.83566  1.0000
  Mo  Mo15      1.0  0.91267  0.11995  0.83566  1.0000
  Mo  Mo16      1.0  0.08733  0.88005  0.33566  1.0000
  Mo  Mo17      1.0  0.58185  0.14461  0.45894  1.0000
  Mo  Mo18      1.0  0.41815  0.85539  0.95894  1.0000
  Mo  Mo19      1.0  0.91815  0.14461  0.95894  1.0000
  Mo  Mo20      1.0  0.08185  0.85539  0.45894  1.0000
  Mo  Mo21      1.0  0.50752  0.04100  0.40353  1.0000
  Mo  Mo22      1.0  0.49248  0.95900  0.90353  1.0000
  Mo  Mo23      1.0  0.99248  0.04100  0.90353  1.0000
  Mo  Mo24      1.0  0.00752  0.95900  0.40353  1.0000
  Mo  Mo25      1.0  0.42756  0.13377  0.34814  1.0000
  Mo  Mo26      1.0  0.57244  0.86623  0.84814  1.0000
  Mo  Mo27      1.0  0.07244  0.13377  0.84814  1.0000
  Mo  Mo28      1.0  0.92756  0.86623  0.34814  1.0000
  Mo  Mo29      1.0  0.44110  0.01967  0.29709  1.0000
  Mo  Mo30      1.0  0.55890  0.98033  0.79709  1.0000
  Mo  Mo31      1.0  0.05890  0.01967  0.79709  1.0000
  Mo  Mo32      1.0  0.94110  0.98033  0.29709  1.0000
  C   C1        1.0  0.75670  0.01060  0.71960  1.0000
  C   C2        1.0  0.24330  0.98940  0.21960  1.0000
  C   C3        1.0  0.74330  0.01060  0.21960  1.0000
  C   C4        1.0  0.25670  0.98940  0.71960  1.0000
  H   H1        1.0  0.71430  0.01040  0.72850  1.0000
  H   H2        1.0  0.28570  0.98960  0.22850  1.0000
  H   H3        1.0  0.78570  0.01040  0.22850  1.0000
  H   H4        1.0  0.21430  0.98960  0.72850  1.0000
  C   C5        1.0  0.77110  0.00870  0.66930  1.0000
  C   C6        1.0  0.22890  0.99130  0.16930  1.0000
  C   C7        1.0  0.72890  0.00870  0.16930  1.0000
  C   C8        1.0  0.27110  0.99130  0.66930  1.0000
  H   H5        1.0  0.73910  0.00860  0.64600  1.0000
  H   H6        1.0  0.26090  0.99140  0.14600  1.0000
  H   H7        1.0  0.76090  0.00860  0.14600  1.0000
  H   H8        1.0  0.23910  0.99140  0.64600  1.0000
  C   C9        1.0  0.86030  0.01040  0.74060  1.0000
  C   C10       1.0  0.13970  0.98960  0.24060  1.0000
  C   C11       1.0  0.63970  0.01040  0.24060  1.0000
  C   C12       1.0  0.36030  0.98960  0.74060  1.0000
  H   H9        1.0  0.89200  0.01120  0.76410  1.0000
  H   H10       1.0  0.10800  0.98880  0.26410  1.0000
  H   H11       1.0  0.60800  0.01120  0.26410  1.0000
  H   H12       1.0  0.39200  0.98880  0.76410  1.0000
  C   C13       1.0  0.87780  0.00660  0.69120  1.0000
  C   C14       1.0  0.12220  0.99340  0.19120  1.0000
  C   C15       1.0  0.62220  0.00660  0.19120  1.0000
  C   C16       1.0  0.37780  0.99340  0.69120  1.0000
  H   H13       1.0  0.92020  0.00390  0.68270  1.0000
  H   H14       1.0  0.07980  0.99610  0.18270  1.0000
  H   H15       1.0  0.57980  0.00390  0.18270  1.0000
  H   H16       1.0  0.42020  0.99610  0.68270  1.0000
  C   C17       1.0  0.83270  0.00690  0.65610  1.0000
  C   C18       1.0  0.16730  0.99310  0.15610  1.0000
  C   C19       1.0  0.66730  0.00690  0.15610  1.0000
  C   C20       1.0  0.33270  0.99310  0.65610  1.0000
  C   C21       1.0  0.84980  0.00340  0.60330  1.0000
  C   C22       1.0  0.15020  0.99660  0.10330  1.0000
  C   C23       1.0  0.65020  0.00340  0.10330  1.0000
  C   C24       1.0  0.34980  0.99660  0.60330  1.0000
  C   C25       1.0  0.90300  0.99390  0.58070  1.0000
  C   C26       1.0  0.09700  0.00610  0.08070  1.0000
  C   C27       1.0  0.59700  0.99390  0.08070  1.0000
  C   C28       1.0  0.40300  0.00610  0.58070  1.0000
  C   C29       1.0  0.97280  0.98930  0.59330  1.0000
  C   C30       1.0  0.02720  0.01070  0.09330  1.0000
  C   C31       1.0  0.52720  0.98930  0.09330  1.0000
  C   C32       1.0  0.47280  0.01070  0.59330  1.0000
  C   C33       1.0  0.00680  0.02190  0.62040  1.0000
  C   C34       1.0  0.99320  0.97810  0.12040  1.0000
  C   C35       1.0  0.49320  0.02190  0.12040  1.0000
  C   C36       1.0  0.50680  0.97810  0.62040  1.0000
  H   H17       1.0  0.98640  0.04740  0.63440  1.0000
  H   H18       1.0  0.01360  0.95260  0.13440  1.0000
  H   H19       1.0  0.51360  0.04740  0.13440  1.0000
  H   H20       1.0  0.48640  0.95260  0.63440  1.0000
  C   C37       1.0  0.07070  0.01610  0.62610  1.0000
  C   C38       1.0  0.92930  0.98390  0.12610  1.0000
  C   C39       1.0  0.42930  0.01610  0.12610  1.0000
  C   C40       1.0  0.57070  0.98390  0.62610  1.0000
  H   H21       1.0  0.09240  0.03850  0.64430  1.0000
  H   H22       1.0  0.90760  0.96150  0.14430  1.0000
  H   H23       1.0  0.40760  0.03850  0.14430  1.0000
  H   H24       1.0  0.59240  0.96150  0.64430  1.0000
  C   C41       1.0  0.07120  0.94970  0.58100  1.0000
  C   C42       1.0  0.92880  0.05030  0.08100  1.0000
  C   C43       1.0  0.42880  0.94970  0.08100  1.0000
  C   C44       1.0  0.57120  0.05030  0.58100  1.0000
  H   H25       1.0  0.09290  0.92450  0.56740  1.0000
  H   H26       1.0  0.90710  0.07550  0.06740  1.0000
  H   H27       1.0  0.40710  0.92450  0.06740  1.0000
  H   H28       1.0  0.59290  0.07550  0.56740  1.0000
  C   C45       1.0  0.00720  0.95260  0.57270  1.0000
  C   C46       1.0  0.99280  0.04740  0.07270  1.0000
  C   C47       1.0  0.49280  0.95260  0.07270  1.0000
  C   C48       1.0  0.50720  0.04740  0.57270  1.0000
  H   H29       1.0  0.98700  0.93030  0.55350  1.0000
  H   H30       1.0  0.01300  0.06970  0.05350  1.0000
  H   H31       1.0  0.51300  0.93030  0.05350  1.0000
  H   H32       1.0  0.48700  0.06970  0.55350  1.0000
  C   C49       1.0  0.82750  0.99940  0.52730  1.0000
  C   C50       1.0  0.17250  0.00060  0.02730  1.0000
  C   C51       1.0  0.67250  0.99940  0.02730  1.0000
  C   C52       1.0  0.32750  0.00060  0.52730  1.0000
  C   C53       1.0  0.79670  0.00040  0.47960  1.0000
  C   C54       1.0  0.20330  0.99960  0.97960  1.0000
  C   C55       1.0  0.70330  0.00040  0.97960  1.0000
  C   C56       1.0  0.29670  0.99960  0.47960  1.0000
  C   C57       1.0  0.82520  0.98080  0.43950  1.0000
  C   C58       1.0  0.17480  0.01920  0.93950  1.0000
  C   C59       1.0  0.67480  0.98080  0.93950  1.0000
  C   C60       1.0  0.32520  0.01920  0.43950  1.0000
  H   H33       1.0  0.86320  0.96470  0.44270  1.0000
  H   H34       1.0  0.13680  0.03530  0.94270  1.0000
  H   H35       1.0  0.63680  0.96470  0.94270  1.0000
  H   H36       1.0  0.36320  0.03530  0.44270  1.0000
  C   C61       1.0  0.79690  0.98520  0.39440  1.0000
  C   C62       1.0  0.20310  0.01480  0.89440  1.0000
  C   C63       1.0  0.70310  0.98520  0.89440  1.0000
  C   C64       1.0  0.29690  0.01480  0.39440  1.0000
  H   H37       1.0  0.81590  0.97060  0.36780  1.0000
  H   H38       1.0  0.18410  0.02940  0.86780  1.0000
  H   H39       1.0  0.68410  0.97060  0.86780  1.0000
  H   H40       1.0  0.31590  0.02940  0.36780  1.0000
  C   C65       1.0  0.71400  0.02680  0.42710  1.0000
  C   C66       1.0  0.28600  0.97320  0.92710  1.0000
  C   C67       1.0  0.78600  0.02680  0.92710  1.0000
  C   C68       1.0  0.21400  0.97320  0.42710  1.0000
  H   H41       1.0  0.67550  0.04200  0.42330  1.0000
  H   H42       1.0  0.32450  0.95800  0.92330  1.0000
  H   H43       1.0  0.82450  0.04200  0.92330  1.0000
  H   H44       1.0  0.17550  0.95800  0.42330  1.0000
  C   C69       1.0  0.73850  0.02280  0.47320  1.0000
  C   C70       1.0  0.26150  0.97720  0.97320  1.0000
  C   C71       1.0  0.76150  0.02280  0.97320  1.0000
  C   C72       1.0  0.23850  0.97720  0.47320  1.0000
  H   H45       1.0  0.71670  0.03490  0.49980  1.0000
  H   H46       1.0  0.28330  0.96510  0.99980  1.0000
  H   H47       1.0  0.78330  0.03490  0.99980  1.0000
  H   H48       1.0  0.21670  0.96510  0.49980  1.0000
  C   C73       1.0  0.23030  0.23830  0.97560  1.0000
  C   C74       1.0  0.76970  0.76170  0.47560  1.0000
  C   C75       1.0  0.26970  0.23830  0.47560  1.0000
  C   C76       1.0  0.73030  0.76170  0.97560  1.0000
  H   H49       1.0  0.27180  0.24090  0.96470  1.0000
  H   H50       1.0  0.72820  0.75910  0.46470  1.0000
  H   H51       1.0  0.22820  0.24090  0.46470  1.0000
  H   H52       1.0  0.77180  0.75910  0.96470  1.0000
  C   C77       1.0  0.22010  0.23890  0.02590  1.0000
  C   C78       1.0  0.77990  0.76110  0.52590  1.0000
  C   C79       1.0  0.27990  0.23890  0.52590  1.0000
  C   C80       1.0  0.72010  0.76110  0.02590  1.0000
  H   H53       1.0  0.25390  0.24180  0.04730  1.0000
  H   H54       1.0  0.74610  0.75820  0.54730  1.0000
  H   H55       1.0  0.24610  0.24180  0.54730  1.0000
  H   H56       1.0  0.75390  0.75820  0.04730  1.0000
  C   C81       1.0  0.12660  0.22920  0.95860  1.0000
  C   C82       1.0  0.87340  0.77080  0.45860  1.0000
  C   C83       1.0  0.37340  0.22920  0.45860  1.0000
  C   C84       1.0  0.62660  0.77080  0.95860  1.0000
  H   H57       1.0  0.09390  0.22540  0.93630  1.0000
  H   H58       1.0  0.90610  0.77460  0.43630  1.0000
  H   H59       1.0  0.40610  0.22540  0.43630  1.0000
  H   H60       1.0  0.59390  0.77460  0.93630  1.0000
  C   C85       1.0  0.11170  0.22910  0.00920  1.0000
  C   C86       1.0  0.88830  0.77090  0.50920  1.0000
  C   C87       1.0  0.38830  0.22910  0.50920  1.0000
  C   C88       1.0  0.61170  0.77090  0.00920  1.0000
  H   H61       1.0  0.07000  0.22510  0.01920  1.0000
  H   H62       1.0  0.93000  0.77490  0.51920  1.0000
  H   H63       1.0  0.43000  0.22510  0.51920  1.0000
  H   H64       1.0  0.57000  0.77490  0.01920  1.0000
  C   C89       1.0  0.15860  0.23510  0.04320  1.0000
  C   C90       1.0  0.84140  0.76490  0.54320  1.0000
  C   C91       1.0  0.34140  0.23510  0.54320  1.0000
  C   C92       1.0  0.65860  0.76490  0.04320  1.0000
  C   C93       1.0  0.14800  0.23650  0.09530  1.0000
  C   C94       1.0  0.85200  0.76350  0.59530  1.0000
  C   C95       1.0  0.35200  0.23650  0.59530  1.0000
  C   C96       1.0  0.64800  0.76350  0.09530  1.0000
  C   C97       1.0  0.08970  0.23780  0.12130  1.0000
  C   C98       1.0  0.91030  0.76220  0.62130  1.0000
  C   C99       1.0  0.41030  0.23780  0.62130  1.0000
  C   C100      1.0  0.58970  0.76220  0.12130  1.0000
  C   C101      1.0  0.02430  0.23400  0.10740  1.0000
  C   C102      1.0  0.97570  0.76600  0.60740  1.0000
  C   C103      1.0  0.47570  0.23400  0.60740  1.0000
  C   C104      1.0  0.52430  0.76600  0.10740  1.0000
  C   C105      1.0  0.99730  0.19100  0.10510  1.0000
  C   C106      1.0  0.00270  0.80900  0.60510  1.0000
  C   C107      1.0  0.50270  0.19100  0.60510  1.0000
  C   C108      1.0  0.49730  0.80900  0.10510  1.0000
  H   H65       1.0  0.02170  0.16420  0.10960  1.0000
  H   H66       1.0  0.97830  0.83580  0.60960  1.0000
  H   H67       1.0  0.47830  0.16420  0.60960  1.0000
  H   H68       1.0  0.52170  0.83580  0.10960  1.0000
  C   C109      1.0  0.93380  0.18720  0.09590  1.0000
  C   C110      1.0  0.06620  0.81280  0.59590  1.0000
  C   C111      1.0  0.56620  0.18720  0.59590  1.0000
  C   C112      1.0  0.43380  0.81280  0.09590  1.0000
  H   H69       1.0  0.91730  0.15700  0.09480  1.0000
  H   H70       1.0  0.08270  0.84300  0.59480  1.0000
  H   H71       1.0  0.58270  0.15700  0.59480  1.0000
  H   H72       1.0  0.41730  0.84300  0.09480  1.0000
  C   C113      1.0  0.92060  0.26520  0.08850  1.0000
  C   C114      1.0  0.07940  0.73480  0.58850  1.0000
  C   C115      1.0  0.57940  0.26520  0.58850  1.0000
  C   C116      1.0  0.42060  0.73480  0.08850  1.0000
  H   H73       1.0  0.89530  0.29120  0.08200  1.0000
  H   H74       1.0  0.10470  0.70880  0.58200  1.0000
  H   H75       1.0  0.60470  0.29120  0.58200  1.0000
  H   H76       1.0  0.39530  0.70880  0.08200  1.0000
  C   C117      1.0  0.98610  0.27300  0.09790  1.0000
  C   C118      1.0  0.01390  0.72700  0.59790  1.0000
  C   C119      1.0  0.51390  0.27300  0.59790  1.0000
  C   C120      1.0  0.48610  0.72700  0.09790  1.0000
  H   H77       1.0  0.00290  0.30310  0.09780  1.0000
  H   H78       1.0  0.99710  0.69690  0.59780  1.0000
  H   H79       1.0  0.49710  0.30310  0.59780  1.0000
  H   H80       1.0  0.50290  0.69690  0.09780  1.0000
  C   C121      1.0  0.17060  0.24030  0.17210  1.0000
  C   C122      1.0  0.82940  0.75970  0.67210  1.0000
  C   C123      1.0  0.32940  0.24030  0.67210  1.0000
  C   C124      1.0  0.67060  0.75970  0.17210  1.0000
  C   C125      1.0  0.20410  0.24240  0.21890  1.0000
  C   C126      1.0  0.79590  0.75760  0.71890  1.0000
  C   C127      1.0  0.29590  0.24240  0.71890  1.0000
  C   C128      1.0  0.70410  0.75760  0.21890  1.0000
  C   C129      1.0  0.17280  0.24990  0.26150  1.0000
  C   C130      1.0  0.82720  0.75010  0.76150  1.0000
  C   C131      1.0  0.32720  0.24990  0.76150  1.0000
  C   C132      1.0  0.67280  0.75010  0.26150  1.0000
  H   H81       1.0  0.12950  0.25570  0.26050  1.0000
  H   H82       1.0  0.87050  0.74430  0.76050  1.0000
  H   H83       1.0  0.37050  0.25570  0.76050  1.0000
  H   H84       1.0  0.62950  0.74430  0.26050  1.0000
  C   C133      1.0  0.20250  0.24920  0.30570  1.0000
  C   C134      1.0  0.79750  0.75080  0.80570  1.0000
  C   C135      1.0  0.29750  0.24920  0.80570  1.0000
  C   C136      1.0  0.70250  0.75080  0.30570  1.0000
  H   H85       1.0  0.17930  0.25500  0.33380  1.0000
  H   H86       1.0  0.82070  0.74500  0.83380  1.0000
  H   H87       1.0  0.32070  0.25500  0.83380  1.0000
  H   H88       1.0  0.67930  0.74500  0.33380  1.0000
  C   C137      1.0  0.29680  0.23350  0.26750  1.0000
  C   C138      1.0  0.70320  0.76650  0.76750  1.0000
  C   C139      1.0  0.20320  0.23350  0.76750  1.0000
  C   C140      1.0  0.79680  0.76650  0.26750  1.0000
  H   H89       1.0  0.34020  0.22860  0.26850  1.0000
  H   H90       1.0  0.65980  0.77140  0.76850  1.0000
  H   H91       1.0  0.15980  0.22860  0.76850  1.0000
  H   H92       1.0  0.84020  0.77140  0.26850  1.0000
  C   C141      1.0  0.26750  0.23330  0.22210  1.0000
  C   C142      1.0  0.73250  0.76670  0.72210  1.0000
  C   C143      1.0  0.23250  0.23330  0.72210  1.0000
  C   C144      1.0  0.76750  0.76670  0.22210  1.0000
  H   H93       1.0  0.29080  0.22710  0.19410  1.0000
  H   H94       1.0  0.70920  0.77290  0.69410  1.0000
  H   H95       1.0  0.20920  0.22710  0.69410  1.0000
  H   H96       1.0  0.79080  0.77290  0.19410  1.0000
  N   N1        1.0  0.79960  0.01280  0.75520  1.0000
  N   N2        1.0  0.20040  0.98720  0.25520  1.0000
  N   N3        1.0  0.70040  0.01280  0.25520  1.0000
  N   N4        1.0  0.29960  0.98720  0.75520  1.0000
  N   N5        1.0  0.10440  0.98050  0.60730  1.0000
  N   N6        1.0  0.89560  0.01950  0.10730  1.0000
  N   N7        1.0  0.39560  0.98050  0.10730  1.0000
  N   N8        1.0  0.60440  0.01950  0.60730  1.0000
  N   N9        1.0  0.88970  0.98990  0.53160  1.0000
  N   N10       1.0  0.11030  0.01010  0.03160  1.0000
  N   N11       1.0  0.61030  0.98990  0.03160  1.0000
  N   N12       1.0  0.38970  0.01010  0.53160  1.0000
  H   H97       1.0  0.91570  0.98280  0.50860  1.0000
  H   H98       1.0  0.08430  0.01720  0.00860  1.0000
  H   H99       1.0  0.58430  0.98280  0.00860  1.0000
  H   H100      1.0  0.41570  0.01720  0.50860  1.0000
  N   N13       1.0  0.80100  0.00740  0.56990  1.0000
  N   N14       1.0  0.19900  0.99260  0.06990  1.0000
  N   N15       1.0  0.69900  0.00740  0.06990  1.0000
  N   N16       1.0  0.30100  0.99260  0.56990  1.0000
  N   N17       1.0  0.74310  0.00960  0.38690  1.0000
  N   N18       1.0  0.25690  0.99040  0.88690  1.0000
  N   N19       1.0  0.75690  0.00960  0.88690  1.0000
  N   N20       1.0  0.24310  0.99040  0.38690  1.0000
  N   N21       1.0  0.18490  0.23420  0.94200  1.0000
  N   N22       1.0  0.81510  0.76580  0.44200  1.0000
  N   N23       1.0  0.31510  0.23420  0.44200  1.0000
  N   N24       1.0  0.68490  0.76580  0.94200  1.0000
  N   N25       1.0  0.89300  0.22250  0.08840  1.0000
  N   N26       1.0  0.10700  0.77750  0.58840  1.0000
  N   N27       1.0  0.60700  0.22250  0.58840  1.0000
  N   N28       1.0  0.39300  0.77750  0.08840  1.0000
  N   N29       1.0  0.10680  0.24080  0.16840  1.0000
  N   N30       1.0  0.89320  0.75920  0.66840  1.0000
  N   N31       1.0  0.39320  0.24080  0.66840  1.0000
  N   N32       1.0  0.60680  0.75920  0.16840  1.0000
  H   H101      1.0  0.08100  0.24270  0.19250  1.0000
  H   H102      1.0  0.91900  0.75730  0.69250  1.0000
  H   H103      1.0  0.41900  0.24270  0.69250  1.0000
  H   H104      1.0  0.58100  0.75730  0.19250  1.0000
  N   N33       1.0  0.19680  0.23760  0.12910  1.0000
  N   N34       1.0  0.80320  0.76240  0.62910  1.0000
  N   N35       1.0  0.30320  0.23760  0.62910  1.0000
  N   N36       1.0  0.69680  0.76240  0.12910  1.0000
  N   N37       1.0  0.26690  0.24010  0.30950  1.0000
  N   N38       1.0  0.73310  0.75990  0.80950  1.0000
  N   N39       1.0  0.23310  0.24010  0.80950  1.0000
  N   N40       1.0  0.76690  0.75990  0.30950  1.0000
  O   O1        1.0  0.39550  0.08650  0.30840  1.0000
  O   O2        1.0  0.60450  0.91350  0.80840  1.0000
  O   O3        1.0  0.10450  0.08650  0.80840  1.0000
  O   O4        1.0  0.89550  0.91350  0.30840  1.0000
  O   O5        1.0  0.45270  0.05270  0.23500  1.0000
  O   O6        1.0  0.54730  0.94730  0.73500  1.0000
  O   O7        1.0  0.04730  0.05270  0.73500  1.0000
  O   O8        1.0  0.95270  0.94730  0.23500  1.0000
  O   O9        1.0  0.33720  0.10980  0.21560  1.0000
  O   O10       1.0  0.66280  0.89020  0.71560  1.0000
  O   O11       1.0  0.16280  0.10980  0.71560  1.0000
  O   O12       1.0  0.83720  0.89020  0.21560  1.0000
  O   O13       1.0  0.45070  0.12670  0.17170  1.0000
  O   O14       1.0  0.54930  0.87330  0.67170  1.0000
  O   O15       1.0  0.04930  0.12670  0.67170  1.0000
  O   O16       1.0  0.95070  0.87330  0.17170  1.0000
  O   O17       1.0  0.44670  0.15830  0.26720  1.0000
  O   O18       1.0  0.55330  0.84170  0.76720  1.0000
  O   O19       1.0  0.05330  0.15830  0.76720  1.0000
  O   O20       1.0  0.94670  0.84170  0.26720  1.0000
  O   O21       1.0  0.45470  0.25220  0.28340  1.0000
  O   O22       1.0  0.54530  0.74780  0.78340  1.0000
  O   O23       1.0  0.04530  0.25220  0.78340  1.0000
  O   O24       1.0  0.95470  0.74780  0.28340  1.0000
  O   O25       1.0  0.53420  0.21740  0.21730  1.0000
  O   O26       1.0  0.46580  0.78260  0.71730  1.0000
  O   O27       1.0  0.96580  0.21740  0.71730  1.0000
  O   O28       1.0  0.03420  0.78260  0.21730  1.0000
  O   O29       1.0  0.50000  0.17340  0.34730  1.0000
  O   O30       1.0  0.50000  0.82660  0.84730  1.0000
  O   O31       1.0  0.00000  0.17340  0.84730  1.0000
  O   O32       1.0  0.00000  0.82660  0.34730  1.0000
  O   O33       1.0  0.58090  0.14530  0.27900  1.0000
  O   O34       1.0  0.41910  0.85470  0.77900  1.0000
  O   O35       1.0  0.91910  0.14530  0.77900  1.0000
  O   O36       1.0  0.08090  0.85470  0.27900  1.0000
  O   O37       1.0  0.57520  0.23530  0.31270  1.0000
  O   O38       1.0  0.42480  0.76470  0.81270  1.0000
  O   O39       1.0  0.92480  0.23530  0.81270  1.0000
  O   O40       1.0  0.07520  0.76470  0.31270  1.0000
  O   O41       1.0  0.50660  0.26990  0.38740  1.0000
  O   O42       1.0  0.49340  0.73010  0.88740  1.0000
  O   O43       1.0  0.99340  0.26990  0.88740  1.0000
  O   O44       1.0  0.00660  0.73010  0.38740  1.0000
  O   O45       1.0  0.63170  0.26700  0.39530  1.0000
  O   O46       1.0  0.36830  0.73300  0.89530  1.0000
  O   O47       1.0  0.86830  0.26700  0.89530  1.0000
  O   O48       1.0  0.13170  0.73300  0.39530  1.0000
  O   O49       1.0  0.55370  0.20340  0.44510  1.0000
  O   O50       1.0  0.44630  0.79660  0.94510  1.0000
  O   O51       1.0  0.94630  0.20340  0.94510  1.0000
  O   O52       1.0  0.05370  0.79660  0.44510  1.0000
  O   O53       1.0  0.61690  0.16710  0.37610  1.0000
  O   O54       1.0  0.38310  0.83290  0.87610  1.0000
  O   O55       1.0  0.88310  0.16710  0.87610  1.0000
  O   O56       1.0  0.11690  0.83290  0.37610  1.0000
  O   O57       1.0  0.65780  0.14240  0.48290  1.0000
  O   O58       1.0  0.34220  0.85760  0.98290  1.0000
  O   O59       1.0  0.84220  0.14240  0.98290  1.0000
  O   O60       1.0  0.15780  0.85760  0.48290  1.0000
  O   O61       1.0  0.53260  0.12900  0.50520  1.0000
  O   O62       1.0  0.46740  0.87100  0.00520  1.0000
  O   O63       1.0  0.96740  0.12900  0.00520  1.0000
  O   O64       1.0  0.03260  0.87100  0.50520  1.0000
  O   O65       1.0  0.56560  0.09380  0.41510  1.0000
  O   O66       1.0  0.43440  0.90620  0.91510  1.0000
  O   O67       1.0  0.93440  0.09380  0.91510  1.0000
  O   O68       1.0  0.06560  0.90620  0.41510  1.0000
  O   O69       1.0  0.64940  0.08220  0.33030  1.0000
  O   O70       1.0  0.35060  0.91780  0.83030  1.0000
  O   O71       1.0  0.85060  0.08220  0.83030  1.0000
  O   O72       1.0  0.14940  0.91780  0.33030  1.0000
  O   O73       1.0  0.48050  0.03180  0.46180  1.0000
  O   O74       1.0  0.51950  0.96820  0.96180  1.0000
  O   O75       1.0  0.01950  0.03180  0.96180  1.0000
  O   O76       1.0  0.98050  0.96820  0.46180  1.0000
  O   O77       1.0  0.56340  0.00100  0.39300  1.0000
  O   O78       1.0  0.43660  0.99900  0.89300  1.0000
  O   O79       1.0  0.93660  0.00100  0.89300  1.0000
  O   O80       1.0  0.06340  0.99900  0.39300  1.0000
  O   O81       1.0  0.43950  0.01670  0.36730  1.0000
  O   O82       1.0  0.56050  0.98330  0.86730  1.0000
  O   O83       1.0  0.06050  0.01670  0.86730  1.0000
  O   O84       1.0  0.93950  0.98330  0.36730  1.0000
  O   O85       1.0  0.43430  0.10680  0.40450  1.0000
  O   O86       1.0  0.56570  0.89320  0.90450  1.0000
  O   O87       1.0  0.06570  0.10680  0.90450  1.0000
  O   O88       1.0  0.93430  0.89320  0.40450  1.0000
  O   O89       1.0  0.51520  0.07930  0.33370  1.0000
  O   O90       1.0  0.48480  0.92070  0.83370  1.0000
  O   O91       1.0  0.98480  0.07930  0.83370  1.0000
  O   O92       1.0  0.01520  0.92070  0.33370  1.0000
  O   O93       1.0  0.36650  0.17200  0.35390  1.0000
  O   O94       1.0  0.63350  0.82800  0.85390  1.0000
  O   O95       1.0  0.13350  0.17200  0.85390  1.0000
  O   O96       1.0  0.86650  0.82800  0.35390  1.0000
  O   O97       1.0  0.37470  0.98810  0.28410  1.0000
  O   O98       1.0  0.62530  0.01190  0.78410  1.0000
  O   O99       1.0  0.12530  0.98810  0.78410  1.0000
  O   O100      1.0  0.87470  0.01190  0.28410  1.0000
  O   O101      1.0  0.50300  0.98340  0.28760  1.0000
  O   O102      1.0  0.49700  0.01660  0.78760  1.0000
  O   O103      1.0  0.99700  0.98340  0.78760  1.0000
  O   O104      1.0  0.00300  0.01660  0.28760  1.0000
  Cu  Cu9       1.0  0.80377  0.27415  0.34658  1.0000
  Cu  Cu10      1.0  0.19623  0.72585  0.84658  1.0000
  Cu  Cu11      1.0  0.69623  0.27415  0.84658  1.0000
  Cu  Cu12      1.0  0.30377  0.72585  0.34658  1.0000
  Mo  Mo33      1.0  0.91703  0.37929  0.33167  1.0000
  Mo  Mo34      1.0  0.08297  0.62071  0.83167  1.0000
  Mo  Mo35      1.0  0.58297  0.37929  0.83167  1.0000
  Mo  Mo36      1.0  0.41703  0.62071  0.33167  1.0000
  Mo  Mo37      1.0  0.00619  0.37883  0.22274  1.0000
  Mo  Mo38      1.0  0.99381  0.62117  0.72274  1.0000
  Mo  Mo39      1.0  0.49381  0.37883  0.72274  1.0000
  Mo  Mo40      1.0  0.50619  0.62117  0.22274  1.0000
  Mo  Mo41      1.0  0.93887  0.47578  0.25663  1.0000
  Mo  Mo42      1.0  0.06113  0.52422  0.75663  1.0000
  Mo  Mo43      1.0  0.56113  0.47578  0.75663  1.0000
  Mo  Mo44      1.0  0.43887  0.52422  0.25663  1.0000
  Mo  Mo45      1.0  0.01837  0.47444  0.35838  1.0000
  Mo  Mo46      1.0  0.98163  0.52556  0.85838  1.0000
  Mo  Mo47      1.0  0.48163  0.47444  0.85838  1.0000
  Mo  Mo48      1.0  0.51837  0.52556  0.35838  1.0000
  Mo  Mo49      1.0  0.08587  0.38013  0.32336  1.0000
  Mo  Mo50      1.0  0.91413  0.61987  0.82336  1.0000
  Mo  Mo51      1.0  0.41413  0.38013  0.82336  1.0000
  Mo  Mo52      1.0  0.58587  0.61987  0.32336  1.0000
  Mo  Mo53      1.0  0.99584  0.37801  0.43184  1.0000
  Mo  Mo54      1.0  0.00416  0.62199  0.93184  1.0000
  Mo  Mo55      1.0  0.50416  0.37801  0.93184  1.0000
  Mo  Mo56      1.0  0.49584  0.62199  0.43184  1.0000
  Mo  Mo57      1.0  0.06839  0.28241  0.39840  1.0000
  Mo  Mo58      1.0  0.93161  0.71759  0.89840  1.0000
  Mo  Mo59      1.0  0.43161  0.28241  0.89840  1.0000
  Mo  Mo60      1.0  0.56839  0.71759  0.39840  1.0000
  Mo  Mo61      1.0  0.98666  0.28482  0.29713  1.0000
  Mo  Mo62      1.0  0.01334  0.71518  0.79713  1.0000
  Mo  Mo63      1.0  0.51334  0.28482  0.79713  1.0000
  Mo  Mo64      1.0  0.48666  0.71518  0.29713  1.0000
  C   C145      1.0  0.43360  0.20270  0.08780  1.0000
  C   C146      1.0  0.56640  0.79730  0.58780  1.0000
  C   C147      1.0  0.06640  0.20270  0.58780  1.0000
  C   C148      1.0  0.93360  0.79730  0.08780  1.0000
  H   H105      1.0  0.40960  0.17860  0.10120  1.0000
  H   H106      1.0  0.59040  0.82140  0.60120  1.0000
  H   H107      1.0  0.09040  0.17860  0.60120  1.0000
  H   H108      1.0  0.90960  0.82140  0.10120  1.0000
  C   C149      1.0  0.49820  0.20330  0.09710  1.0000
  C   C150      1.0  0.50180  0.79670  0.59710  1.0000
  C   C151      1.0  0.00180  0.20330  0.59710  1.0000
  C   C152      1.0  0.99820  0.79670  0.09710  1.0000
  H   H109      1.0  0.51690  0.17930  0.11490  1.0000
  H   H110      1.0  0.48310  0.82070  0.61490  1.0000
  H   H111      1.0  0.98310  0.17930  0.61490  1.0000
  H   H112      1.0  0.01690  0.82070  0.11490  1.0000
  C   C153      1.0  0.43760  0.26850  0.04420  1.0000
  C   C154      1.0  0.56240  0.73150  0.54420  1.0000
  C   C155      1.0  0.06240  0.26850  0.54420  1.0000
  C   C156      1.0  0.93760  0.73150  0.04420  1.0000
  H   H113      1.0  0.41670  0.29150  0.02640  1.0000
  H   H114      1.0  0.58330  0.70850  0.52640  1.0000
  H   H115      1.0  0.08330  0.29150  0.52640  1.0000
  H   H116      1.0  0.91670  0.70850  0.02640  1.0000
  C   C157      1.0  0.50390  0.27360  0.05100  1.0000
  C   C158      1.0  0.49610  0.72640  0.55100  1.0000
  C   C159      1.0  0.99610  0.27360  0.55100  1.0000
  C   C160      1.0  0.00390  0.72640  0.05100  1.0000
  H   H117      1.0  0.52630  0.29820  0.03700  1.0000
  H   H118      1.0  0.47370  0.70180  0.53700  1.0000
  H   H119      1.0  0.97370  0.29820  0.53700  1.0000
  H   H120      1.0  0.02630  0.70180  0.03700  1.0000
  C   C161      1.0  0.53380  0.23960  0.07990  1.0000
  C   C162      1.0  0.46620  0.76040  0.57990  1.0000
  C   C163      1.0  0.96620  0.23960  0.57990  1.0000
  C   C164      1.0  0.03380  0.76040  0.07990  1.0000
  C   C165      1.0  0.60200  0.24410  0.09230  1.0000
  C   C166      1.0  0.39800  0.75590  0.59230  1.0000
  C   C167      1.0  0.89800  0.24410  0.59230  1.0000
  C   C168      1.0  0.10200  0.75590  0.09230  1.0000
  C   C169      1.0  0.65780  0.25500  0.06870  1.0000
  C   C170      1.0  0.34220  0.74500  0.56870  1.0000
  C   C171      1.0  0.84220  0.25500  0.56870  1.0000
  C   C172      1.0  0.15780  0.74500  0.06870  1.0000
  C   C173      1.0  0.66990  0.25610  0.01540  1.0000
  C   C174      1.0  0.33010  0.74390  0.51540  1.0000
  C   C175      1.0  0.83010  0.25610  0.51540  1.0000
  C   C176      1.0  0.16990  0.74390  0.01540  1.0000
  C   C177      1.0  0.62320  0.24670  0.98180  1.0000
  C   C178      1.0  0.37680  0.75330  0.48180  1.0000
  C   C179      1.0  0.87680  0.24670  0.48180  1.0000
  C   C180      1.0  0.12320  0.75330  0.98180  1.0000
  H   H121      1.0  0.58330  0.23760  0.99240  1.0000
  H   H122      1.0  0.41670  0.76240  0.49240  1.0000
  H   H123      1.0  0.91670  0.23760  0.49240  1.0000
  H   H124      1.0  0.08330  0.76240  0.99240  1.0000
  C   C181      1.0  0.63550  0.25090  0.93220  1.0000
  C   C182      1.0  0.36450  0.74910  0.43220  1.0000
  C   C183      1.0  0.86450  0.25090  0.43220  1.0000
  C   C184      1.0  0.13550  0.74910  0.93220  1.0000
  H   H125      1.0  0.60350  0.24380  0.91020  1.0000
  H   H126      1.0  0.39650  0.75620  0.41020  1.0000
  H   H127      1.0  0.89650  0.24380  0.41020  1.0000
  H   H128      1.0  0.10350  0.75620  0.91020  1.0000
  C   C185      1.0  0.73660  0.27160  0.94780  1.0000
  C   C186      1.0  0.26340  0.72840  0.44780  1.0000
  C   C187      1.0  0.76340  0.27160  0.44780  1.0000
  C   C188      1.0  0.23660  0.72840  0.94780  1.0000
  H   H129      1.0  0.77640  0.27940  0.93600  1.0000
  H   H130      1.0  0.22360  0.72060  0.43600  1.0000
  H   H131      1.0  0.72360  0.27940  0.43600  1.0000
  H   H132      1.0  0.27640  0.72060  0.93600  1.0000
  C   C189      1.0  0.72890  0.26800  0.99660  1.0000
  C   C190      1.0  0.27110  0.73200  0.49660  1.0000
  C   C191      1.0  0.77110  0.26800  0.49660  1.0000
  C   C192      1.0  0.22890  0.73200  0.99660  1.0000
  H   H133      1.0  0.76280  0.27340  0.01750  1.0000
  H   H134      1.0  0.23720  0.72660  0.51750  1.0000
  H   H135      1.0  0.73720  0.27340  0.51750  1.0000
  H   H136      1.0  0.26280  0.72660  0.01750  1.0000
  C   C193      1.0  0.68250  0.25370  0.14440  1.0000
  C   C194      1.0  0.31750  0.74630  0.64440  1.0000
  C   C195      1.0  0.81750  0.25370  0.64440  1.0000
  C   C196      1.0  0.18250  0.74630  0.14440  1.0000
  C   C197      1.0  0.71410  0.25750  0.19100  1.0000
  C   C198      1.0  0.28590  0.74250  0.69100  1.0000
  C   C199      1.0  0.78590  0.25750  0.69100  1.0000
  C   C200      1.0  0.21410  0.74250  0.19100  1.0000
  C   C201      1.0  0.68390  0.24610  0.23400  1.0000
  C   C202      1.0  0.31610  0.75390  0.73400  1.0000
  C   C203      1.0  0.81610  0.24610  0.73400  1.0000
  C   C204      1.0  0.18390  0.75390  0.23400  1.0000
  H   H137      1.0  0.64250  0.23510  0.23350  1.0000
  H   H138      1.0  0.35750  0.76490  0.73350  1.0000
  H   H139      1.0  0.85750  0.23510  0.73350  1.0000
  H   H140      1.0  0.14250  0.76490  0.23350  1.0000
  C   C205      1.0  0.71450  0.25100  0.27650  1.0000
  C   C206      1.0  0.28550  0.74900  0.77650  1.0000
  C   C207      1.0  0.78550  0.25100  0.77650  1.0000
  C   C208      1.0  0.21450  0.74900  0.27650  1.0000
  H   H141      1.0  0.69300  0.24250  0.30470  1.0000
  H   H142      1.0  0.30700  0.75750  0.80470  1.0000
  H   H143      1.0  0.80700  0.24250  0.80470  1.0000
  H   H144      1.0  0.19300  0.75750  0.30470  1.0000
  C   C209      1.0  0.80260  0.27850  0.23980  1.0000
  C   C210      1.0  0.19740  0.72150  0.73980  1.0000
  C   C211      1.0  0.69740  0.27850  0.73980  1.0000
  C   C212      1.0  0.30260  0.72150  0.23980  1.0000
  H   H145      1.0  0.84390  0.28960  0.24180  1.0000
  H   H146      1.0  0.15610  0.71040  0.74180  1.0000
  H   H147      1.0  0.65610  0.28960  0.74180  1.0000
  H   H148      1.0  0.34390  0.71040  0.24180  1.0000
  C   C213      1.0  0.77460  0.27460  0.19360  1.0000
  C   C214      1.0  0.22540  0.72540  0.69360  1.0000
  C   C215      1.0  0.72540  0.27460  0.69360  1.0000
  C   C216      1.0  0.27460  0.72540  0.19360  1.0000
  H   H149      1.0  0.79630  0.28340  0.16560  1.0000
  H   H150      1.0  0.20370  0.71660  0.66560  1.0000
  H   H151      1.0  0.70370  0.28340  0.66560  1.0000
  H   H152      1.0  0.29630  0.71660  0.16560  1.0000
  N   N41       1.0  0.40460  0.23420  0.06100  1.0000
  N   N42       1.0  0.59540  0.76580  0.56100  1.0000
  N   N43       1.0  0.09540  0.23420  0.56100  1.0000
  N   N44       1.0  0.90460  0.76580  0.06100  1.0000
  N   N45       1.0  0.69010  0.26440  0.91560  1.0000
  N   N46       1.0  0.30990  0.73560  0.41560  1.0000
  N   N47       1.0  0.80990  0.26440  0.41560  1.0000
  N   N48       1.0  0.19010  0.73560  0.91560  1.0000
  N   N49       1.0  0.70680  0.26040  0.10070  1.0000
  N   N50       1.0  0.29320  0.73960  0.60070  1.0000
  N   N51       1.0  0.79320  0.26040  0.60070  1.0000
  N   N52       1.0  0.20680  0.73960  0.10070  1.0000
  N   N53       1.0  0.61810  0.24370  0.14050  1.0000
  N   N54       1.0  0.38190  0.75630  0.64050  1.0000
  N   N55       1.0  0.88190  0.24370  0.64050  1.0000
  N   N56       1.0  0.11810  0.75630  0.14050  1.0000
  H   H153      1.0  0.59280  0.23810  0.16440  1.0000
  H   H154      1.0  0.40720  0.76190  0.66440  1.0000
  H   H155      1.0  0.90720  0.23810  0.66440  1.0000
  H   H156      1.0  0.09280  0.76190  0.16440  1.0000
  N   N57       1.0  0.77260  0.26690  0.28150  1.0000
  N   N58       1.0  0.22740  0.73310  0.78150  1.0000
  N   N59       1.0  0.72740  0.26690  0.78150  1.0000
  N   N60       1.0  0.27260  0.73310  0.28150  1.0000
  O   O105      1.0  0.85770  0.34690  0.35590  1.0000
  O   O106      1.0  0.14230  0.65310  0.85590  1.0000
  O   O107      1.0  0.64230  0.34690  0.85590  1.0000
  O   O108      1.0  0.35770  0.65310  0.35590  1.0000
  O   O109      1.0  0.99770  0.33970  0.35660  1.0000
  O   O110      1.0  0.00230  0.66030  0.85660  1.0000
  O   O111      1.0  0.50230  0.33970  0.85660  1.0000
  O   O112      1.0  0.49770  0.66030  0.35660  1.0000
  O   O113      1.0  0.94430  0.41690  0.38670  1.0000
  O   O114      1.0  0.05570  0.58310  0.88670  1.0000
  O   O115      1.0  0.55570  0.41690  0.88670  1.0000
  O   O116      1.0  0.44430  0.58310  0.38670  1.0000
  O   O117      1.0  0.93720  0.34100  0.27530  1.0000
  O   O118      1.0  0.06280  0.65900  0.77530  1.0000
  O   O119      1.0  0.56280  0.34100  0.77530  1.0000
  O   O120      1.0  0.43720  0.65900  0.27530  1.0000
  O   O121      1.0  0.87820  0.42450  0.30000  1.0000
  O   O122      1.0  0.12180  0.57550  0.80000  1.0000
  O   O123      1.0  0.62180  0.42450  0.80000  1.0000
  O   O124      1.0  0.37820  0.57550  0.30000  1.0000
  O   O125      1.0  0.00550  0.41970  0.29940  1.0000
  O   O126      1.0  0.99450  0.58030  0.79940  1.0000
  O   O127      1.0  0.49450  0.41970  0.79940  1.0000
  O   O128      1.0  0.50550  0.58030  0.29940  1.0000
  O   O129      1.0  0.05860  0.34090  0.26920  1.0000
  O   O130      1.0  0.94140  0.65910  0.76920  1.0000
  O   O131      1.0  0.44140  0.34090  0.76920  1.0000
  O   O132      1.0  0.55860  0.65910  0.26920  1.0000
  O   O133      1.0  0.98980  0.33940  0.17870  1.0000
  O   O134      1.0  0.01020  0.66060  0.67870  1.0000
  O   O135      1.0  0.51020  0.33940  0.67870  1.0000
  O   O136      1.0  0.48980  0.66060  0.17870  1.0000
  O   O137      1.0  0.93680  0.42100  0.21690  1.0000
  O   O138      1.0  0.06320  0.57900  0.71690  1.0000
  O   O139      1.0  0.56320  0.42100  0.71690  1.0000
  O   O140      1.0  0.43680  0.57900  0.21690  1.0000
  O   O141      1.0  0.06720  0.41160  0.20050  1.0000
  O   O142      1.0  0.93280  0.58840  0.70050  1.0000
  O   O143      1.0  0.43280  0.41160  0.70050  1.0000
  O   O144      1.0  0.56720  0.58840  0.20050  1.0000
  O   O145      1.0  0.87230  0.50580  0.24070  1.0000
  O   O146      1.0  0.12770  0.49420  0.74070  1.0000
  O   O147      1.0  0.62770  0.50580  0.74070  1.0000
  O   O148      1.0  0.37230  0.49420  0.24070  1.0000
  O   O149      1.0  0.00020  0.50400  0.22970  1.0000
  O   O150      1.0  0.99980  0.49600  0.72970  1.0000
  O   O151      1.0  0.49980  0.50400  0.72970  1.0000
  O   O152      1.0  0.50020  0.49600  0.22970  1.0000
  O   O153      1.0  0.95050  0.49820  0.32240  1.0000
  O   O154      1.0  0.04950  0.50180  0.82240  1.0000
  O   O155      1.0  0.54950  0.49820  0.82240  1.0000
  O   O156      1.0  0.45050  0.50180  0.32240  1.0000
  O   O157      1.0  0.07980  0.50430  0.33660  1.0000
  O   O158      1.0  0.92020  0.49570  0.83660  1.0000
  O   O159      1.0  0.42020  0.50430  0.83660  1.0000
  O   O160      1.0  0.57980  0.49570  0.33660  1.0000
  O   O161      1.0  0.00410  0.49900  0.41400  1.0000
  O   O162      1.0  0.99590  0.50100  0.91400  1.0000
  O   O163      1.0  0.49590  0.49900  0.91400  1.0000
  O   O164      1.0  0.50410  0.50100  0.41400  1.0000
  O   O165      1.0  0.14310  0.41350  0.29770  1.0000
  O   O166      1.0  0.85690  0.58650  0.79770  1.0000
  O   O167      1.0  0.35690  0.41350  0.79770  1.0000
  O   O168      1.0  0.64310  0.58650  0.29770  1.0000
  O   O169      1.0  0.06540  0.41850  0.38040  1.0000
  O   O170      1.0  0.93460  0.58150  0.88040  1.0000
  O   O171      1.0  0.43460  0.41850  0.88040  1.0000
  O   O172      1.0  0.56540  0.58150  0.38040  1.0000
  O   O173      1.0  0.12690  0.33670  0.35450  1.0000
  O   O174      1.0  0.87310  0.66330  0.85450  1.0000
  O   O175      1.0  0.37310  0.33670  0.85450  1.0000
  O   O176      1.0  0.62690  0.66330  0.35450  1.0000
  O   O177      1.0  0.00960  0.41800  0.47670  1.0000
  O   O178      1.0  0.99040  0.58200  0.97670  1.0000
  O   O179      1.0  0.49040  0.41800  0.97670  1.0000
  O   O180      1.0  0.50960  0.58200  0.47670  1.0000
  O   O181      1.0  0.06750  0.33750  0.43980  1.0000
  O   O182      1.0  0.93250  0.66250  0.93980  1.0000
  O   O183      1.0  0.43250  0.33750  0.93980  1.0000
  O   O184      1.0  0.56750  0.66250  0.43980  1.0000
  O   O185      1.0  0.93700  0.34340  0.45450  1.0000
  O   O186      1.0  0.06300  0.65660  0.95450  1.0000
  O   O187      1.0  0.56300  0.34340  0.95450  1.0000
  O   O188      1.0  0.43700  0.65660  0.45450  1.0000
  O   O189      1.0  0.13470  0.25430  0.41540  1.0000
  O   O190      1.0  0.86530  0.74570  0.91540  1.0000
  O   O191      1.0  0.36530  0.25430  0.91540  1.0000
  O   O192      1.0  0.63470  0.74570  0.41540  1.0000
  O   O193      1.0  0.00980  0.25190  0.42540  1.0000
  O   O194      1.0  0.99020  0.74810  0.92540  1.0000
  O   O195      1.0  0.49020  0.25190  0.92540  1.0000
  O   O196      1.0  0.50980  0.74810  0.42540  1.0000
  O   O197      1.0  0.05670  0.26100  0.33260  1.0000
  O   O198      1.0  0.94330  0.73900  0.83260  1.0000
  O   O199      1.0  0.44330  0.26100  0.83260  1.0000
  O   O200      1.0  0.55670  0.73900  0.33260  1.0000
  O   O201      1.0  0.00110  0.25660  0.24340  1.0000
  O   O202      1.0  0.99890  0.74340  0.74340  1.0000
  O   O203      1.0  0.49890  0.25660  0.74340  1.0000
  O   O204      1.0  0.50110  0.74340  0.24340  1.0000
  O   O205      1.0  0.92420  0.25540  0.32200  1.0000
  O   O206      1.0  0.07580  0.74460  0.82200  1.0000
  O   O207      1.0  0.57580  0.25540  0.82200  1.0000
  O   O208      1.0  0.42420  0.74460  0.32200  1.0000
  Cu  Cu13      1.0  0.22137  0.48119  0.28502  1.0000
  Cu  Cu14      1.0  0.77863  0.51881  0.78502  1.0000
  Cu  Cu15      1.0  0.27863  0.48119  0.78502  1.0000
  Cu  Cu16      1.0  0.72137  0.51881  0.28502  1.0000
  C   C217      1.0  0.24470  0.48090  0.18190  1.0000
  C   C218      1.0  0.75530  0.51910  0.68190  1.0000
  C   C219      1.0  0.25530  0.48090  0.68190  1.0000
  C   C220      1.0  0.74470  0.51910  0.18190  1.0000
  H   H157      1.0  0.28660  0.47490  0.19020  1.0000
  H   H158      1.0  0.71340  0.52510  0.69020  1.0000
  H   H159      1.0  0.21340  0.47490  0.69020  1.0000
  H   H160      1.0  0.78660  0.52510  0.19020  1.0000
  C   C221      1.0  0.22870  0.48360  0.13330  1.0000
  C   C222      1.0  0.77130  0.51640  0.63330  1.0000
  C   C223      1.0  0.27130  0.48360  0.63330  1.0000
  C   C224      1.0  0.72870  0.51640  0.13330  1.0000
  H   H161      1.0  0.25950  0.47920  0.10960  1.0000
  H   H162      1.0  0.74050  0.52080  0.60960  1.0000
  H   H163      1.0  0.24050  0.47920  0.60960  1.0000
  H   H164      1.0  0.75950  0.52080  0.10960  1.0000
  C   C225      1.0  0.14360  0.49800  0.20450  1.0000
  C   C226      1.0  0.85640  0.50200  0.70450  1.0000
  C   C227      1.0  0.35640  0.49800  0.70450  1.0000
  C   C228      1.0  0.64360  0.50200  0.20450  1.0000
  H   H165      1.0  0.11430  0.50410  0.22900  1.0000
  H   H166      1.0  0.88570  0.49590  0.72900  1.0000
  H   H167      1.0  0.38570  0.50410  0.72900  1.0000
  H   H168      1.0  0.61430  0.49590  0.22900  1.0000
  C   C229      1.0  0.12420  0.50120  0.15810  1.0000
  C   C230      1.0  0.87580  0.49880  0.65810  1.0000
  C   C231      1.0  0.37580  0.50120  0.65810  1.0000
  C   C232      1.0  0.62420  0.49880  0.15810  1.0000
  H   H169      1.0  0.08250  0.50890  0.15110  1.0000
  H   H170      1.0  0.91750  0.49110  0.65110  1.0000
  H   H171      1.0  0.41750  0.50890  0.65110  1.0000
  H   H172      1.0  0.58250  0.49110  0.15110  1.0000
  C   C233      1.0  0.16710  0.49280  0.11990  1.0000
  C   C234      1.0  0.83290  0.50720  0.61990  1.0000
  C   C235      1.0  0.33290  0.49280  0.61990  1.0000
  C   C236      1.0  0.66710  0.50720  0.11990  1.0000
  C   C237      1.0  0.14800  0.49370  0.06820  1.0000
  C   C238      1.0  0.85200  0.50630  0.56820  1.0000
  C   C239      1.0  0.35200  0.49370  0.56820  1.0000
  C   C240      1.0  0.64800  0.50630  0.06820  1.0000
  C   C241      1.0  0.08960  0.49770  0.04860  1.0000
  C   C242      1.0  0.91040  0.50230  0.54860  1.0000
  C   C243      1.0  0.41040  0.49770  0.54860  1.0000
  C   C244      1.0  0.58960  0.50230  0.04860  1.0000
  C   C245      1.0  0.02260  0.49320  0.06890  1.0000
  C   C246      1.0  0.97740  0.50680  0.56890  1.0000
  C   C247      1.0  0.47740  0.49320  0.56890  1.0000
  C   C248      1.0  0.52260  0.50680  0.06890  1.0000
  C   C249      1.0  0.99090  0.53410  0.08840  1.0000
  C   C250      1.0  0.00910  0.46590  0.58840  1.0000
  C   C251      1.0  0.50910  0.53410  0.58840  1.0000
  C   C252      1.0  0.49090  0.46590  0.08840  1.0000
  H   H173      1.0  0.01000  0.56350  0.08810  1.0000
  H   H174      1.0  0.99000  0.43650  0.58810  1.0000
  H   H175      1.0  0.49000  0.56350  0.58810  1.0000
  H   H176      1.0  0.51000  0.43650  0.08810  1.0000
  C   C253      1.0  0.93070  0.52740  0.10760  1.0000
  C   C254      1.0  0.06930  0.47260  0.60760  1.0000
  C   C255      1.0  0.56930  0.52740  0.60760  1.0000
  C   C256      1.0  0.43070  0.47260  0.10760  1.0000
  H   H177      1.0  0.90670  0.55300  0.11750  1.0000
  H   H178      1.0  0.09330  0.44700  0.61750  1.0000
  H   H179      1.0  0.59330  0.55300  0.61750  1.0000
  H   H180      1.0  0.40670  0.44700  0.11750  1.0000
  C   C257      1.0  0.93870  0.44530  0.09490  1.0000
  C   C258      1.0  0.06130  0.55470  0.59490  1.0000
  C   C259      1.0  0.56130  0.44530  0.59490  1.0000
  C   C260      1.0  0.43870  0.55470  0.09490  1.0000
  H   H181      1.0  0.91990  0.41580  0.09690  1.0000
  H   H182      1.0  0.08010  0.58420  0.59690  1.0000
  H   H183      1.0  0.58010  0.41580  0.59690  1.0000
  H   H184      1.0  0.41990  0.58420  0.09690  1.0000
  C   C261      1.0  0.99780  0.44890  0.07470  1.0000
  C   C262      1.0  0.00220  0.55110  0.57470  1.0000
  C   C263      1.0  0.50220  0.44890  0.57470  1.0000
  C   C264      1.0  0.49780  0.55110  0.07470  1.0000
  H   H185      1.0  0.02020  0.42230  0.06530  1.0000
  H   H186      1.0  0.97980  0.57770  0.56530  1.0000
  H   H187      1.0  0.47980  0.42230  0.56530  1.0000
  H   H188      1.0  0.52020  0.57770  0.06530  1.0000
  C   C265      1.0  0.16280  0.49400  0.98990  1.0000
  C   C266      1.0  0.83720  0.50600  0.48990  1.0000
  C   C267      1.0  0.33720  0.49400  0.48990  1.0000
  C   C268      1.0  0.66280  0.50600  0.98990  1.0000
  C   C269      1.0  0.18980  0.49240  0.94200  1.0000
  C   C270      1.0  0.81020  0.50760  0.44200  1.0000
  C   C271      1.0  0.31020  0.49240  0.44200  1.0000
  C   C272      1.0  0.68980  0.50760  0.94200  1.0000
  C   C273      1.0  0.15630  0.48610  0.89940  1.0000
  C   C274      1.0  0.84370  0.51390  0.39940  1.0000
  C   C275      1.0  0.34370  0.48610  0.39940  1.0000
  C   C276      1.0  0.65630  0.51390  0.89940  1.0000
  H   H189      1.0  0.11240  0.48390  0.90080  1.0000
  H   H190      1.0  0.88760  0.51610  0.40080  1.0000
  H   H191      1.0  0.38760  0.48390  0.40080  1.0000
  H   H192      1.0  0.61240  0.51610  0.90080  1.0000
  C   C277      1.0  0.18550  0.48290  0.85580  1.0000
  C   C278      1.0  0.81450  0.51710  0.35580  1.0000
  C   C279      1.0  0.31450  0.48290  0.35580  1.0000
  C   C280      1.0  0.68550  0.51710  0.85580  1.0000
  H   H193      1.0  0.16040  0.47900  0.82830  1.0000
  H   H194      1.0  0.83960  0.52100  0.32830  1.0000
  H   H195      1.0  0.33960  0.47900  0.32830  1.0000
  H   H196      1.0  0.66040  0.52100  0.82830  1.0000
  C   C281      1.0  0.28140  0.48720  0.89150  1.0000
  C   C282      1.0  0.71860  0.51280  0.39150  1.0000
  C   C283      1.0  0.21860  0.48720  0.39150  1.0000
  C   C284      1.0  0.78140  0.51280  0.89150  1.0000
  H   H197      1.0  0.32520  0.48600  0.88900  1.0000
  H   H198      1.0  0.67480  0.51400  0.38900  1.0000
  H   H199      1.0  0.17480  0.48600  0.38900  1.0000
  H   H200      1.0  0.82520  0.51400  0.88900  1.0000
  C   C285      1.0  0.25660  0.49080  0.93570  1.0000
  C   C286      1.0  0.74340  0.50920  0.43570  1.0000
  C   C287      1.0  0.24340  0.49080  0.43570  1.0000
  C   C288      1.0  0.75660  0.50920  0.93570  1.0000
  H   H201      1.0  0.28300  0.49230  0.96280  1.0000
  H   H202      1.0  0.71700  0.50770  0.46280  1.0000
  H   H203      1.0  0.21700  0.49230  0.46280  1.0000
  H   H204      1.0  0.78300  0.50770  0.96280  1.0000
  N   N61       1.0  0.20230  0.48670  0.21750  1.0000
  N   N62       1.0  0.79770  0.51330  0.71750  1.0000
  N   N63       1.0  0.29770  0.48670  0.71750  1.0000
  N   N64       1.0  0.70230  0.51330  0.21750  1.0000
  N   N65       1.0  0.90690  0.48250  0.11180  1.0000
  N   N66       1.0  0.09310  0.51750  0.61180  1.0000
  N   N67       1.0  0.59310  0.48250  0.61180  1.0000
  N   N68       1.0  0.40690  0.51750  0.11180  1.0000
  N   N69       1.0  0.09820  0.49600  0.99760  1.0000
  N   N70       1.0  0.90180  0.50400  0.49760  1.0000
  N   N71       1.0  0.40180  0.49600  0.49760  1.0000
  N   N72       1.0  0.59820  0.50400  0.99760  1.0000
  H   H205      1.0  0.06910  0.49620  0.97580  1.0000
  H   H206      1.0  0.93090  0.50380  0.47580  1.0000
  H   H207      1.0  0.43090  0.49620  0.47580  1.0000
  H   H208      1.0  0.56910  0.50380  0.97580  1.0000
  N   N73       1.0  0.19190  0.49230  0.03160  1.0000
  N   N74       1.0  0.80810  0.50770  0.53160  1.0000
  N   N75       1.0  0.30810  0.49230  0.53160  1.0000
  N   N76       1.0  0.69190  0.50770  0.03160  1.0000
  N   N77       1.0  0.24750  0.48500  0.84940  1.0000
  N   N78       1.0  0.75250  0.51500  0.34940  1.0000
  N   N79       1.0  0.25250  0.48500  0.34940  1.0000
  N   N80       1.0  0.74750  0.51500  0.84940  1.0000
