data_image0
_chemical_formula_structural       Cd8Cl8O8C8O8C16H8C8H8C8H8C24H8O16
_chemical_formula_sum              "Cd8 Cl8 O32 C64 H32"
_cell_length_a       18.6679
_cell_length_b       18.6679
_cell_length_c       17.8347
_cell_angle_alpha    90
_cell_angle_beta     90
_cell_angle_gamma    90

_space_group_name_H-M_alt    "P 1"
_space_group_IT_number       1

loop_
  _space_group_symop_operation_xyz
  'x, y, z'

loop_
  _atom_site_type_symbol
  _atom_site_label
  _atom_site_symmetry_multiplicity
  _atom_site_fract_x
  _atom_site_fract_y
  _atom_site_fract_z
  _atom_site_occupancy
  Cd  Cd1       1.0  0.57283  0.43288  0.00611  1.0000
  Cd  Cd2       1.0  0.56712  0.07282  0.50611  1.0000
  Cd  Cd3       1.0  0.93288  0.42718  0.50611  1.0000
  Cd  Cd4       1.0  0.92717  0.06712  0.00611  1.0000
  Cd  Cd5       1.0  0.42718  0.56712  0.99389  1.0000
  Cd  Cd6       1.0  0.43288  0.92717  0.49389  1.0000
  Cd  Cd7       1.0  0.06712  0.57283  0.49389  1.0000
  Cd  Cd8       1.0  0.07282  0.93288  0.99389  1.0000
  Cl  Cl1       1.0  0.54698  0.55606  0.06451  1.0000
  Cl  Cl2       1.0  0.44394  0.04698  0.56451  1.0000
  Cl  Cl3       1.0  0.05606  0.45302  0.56451  1.0000
  Cl  Cl4       1.0  0.95302  0.94394  0.06451  1.0000
  Cl  Cl5       1.0  0.45302  0.44394  0.93549  1.0000
  Cl  Cl6       1.0  0.55606  0.95302  0.43549  1.0000
  Cl  Cl7       1.0  0.94394  0.54698  0.43549  1.0000
  Cl  Cl8       1.0  0.04698  0.05606  0.93549  1.0000
  O   O1        1.0  0.65260  0.47857  0.92151  1.0000
  O   O2        1.0  0.52143  0.15260  0.42151  1.0000
  O   O3        1.0  0.97857  0.34740  0.42151  1.0000
  O   O4        1.0  0.84740  0.02143  0.92151  1.0000
  O   O5        1.0  0.34740  0.52143  0.07849  1.0000
  O   O6        1.0  0.47857  0.84740  0.57849  1.0000
  O   O7        1.0  0.02143  0.65260  0.57849  1.0000
  O   O8        1.0  0.15260  0.97857  0.07849  1.0000
  C   C1        1.0  0.70950  0.41950  0.81920  1.0000
  C   C2        1.0  0.58050  0.20950  0.31920  1.0000
  C   C3        1.0  0.91950  0.29050  0.31920  1.0000
  C   C4        1.0  0.79050  0.08050  0.81920  1.0000
  C   C5        1.0  0.29050  0.58050  0.18080  1.0000
  C   C6        1.0  0.41950  0.79050  0.68080  1.0000
  C   C7        1.0  0.08050  0.70950  0.68080  1.0000
  C   C8        1.0  0.20950  0.91950  0.18080  1.0000
  O   O9        1.0  0.63837  0.36253  0.91257  1.0000
  O   O10       1.0  0.63747  0.13837  0.41257  1.0000
  O   O11       1.0  0.86253  0.36163  0.41257  1.0000
  O   O12       1.0  0.86163  0.13747  0.91257  1.0000
  O   O13       1.0  0.36163  0.63747  0.08743  1.0000
  O   O14       1.0  0.36253  0.86163  0.58743  1.0000
  O   O15       1.0  0.13747  0.63837  0.58743  1.0000
  O   O16       1.0  0.13837  0.86253  0.08743  1.0000
  C   C9        1.0  0.66390  0.41980  0.88870  1.0000
  C   C10       1.0  0.58020  0.16390  0.38870  1.0000
  C   C11       1.0  0.91980  0.33610  0.38870  1.0000
  C   C12       1.0  0.83610  0.08020  0.88870  1.0000
  C   C13       1.0  0.33610  0.58020  0.11130  1.0000
  C   C14       1.0  0.41980  0.83610  0.61130  1.0000
  C   C15       1.0  0.08020  0.66390  0.61130  1.0000
  C   C16       1.0  0.16390  0.91980  0.11130  1.0000
  C   C17       1.0  0.72330  0.48240  0.78110  1.0000
  C   C18       1.0  0.51760  0.22330  0.28110  1.0000
  C   C19       1.0  0.98240  0.27670  0.28110  1.0000
  C   C20       1.0  0.77670  0.01760  0.78110  1.0000
  C   C21       1.0  0.27670  0.51760  0.21890  1.0000
  C   C22       1.0  0.48240  0.77670  0.71890  1.0000
  C   C23       1.0  0.01760  0.72330  0.71890  1.0000
  C   C24       1.0  0.22330  0.98240  0.21890  1.0000
  H   H1        1.0  0.70470  0.52520  0.79920  1.0000
  H   H2        1.0  0.47480  0.20470  0.29920  1.0000
  H   H3        1.0  0.02520  0.29530  0.29920  1.0000
  H   H4        1.0  0.79530  0.97480  0.79920  1.0000
  H   H5        1.0  0.29530  0.47480  0.20080  1.0000
  H   H6        1.0  0.52520  0.79530  0.70080  1.0000
  H   H7        1.0  0.97480  0.70470  0.70080  1.0000
  H   H8        1.0  0.20470  0.02520  0.20080  1.0000
  C   C25       1.0  0.73740  0.35690  0.79140  1.0000
  C   C26       1.0  0.64310  0.23740  0.29140  1.0000
  C   C27       1.0  0.85690  0.26260  0.29140  1.0000
  C   C28       1.0  0.76260  0.14310  0.79140  1.0000
  C   C29       1.0  0.26260  0.64310  0.20860  1.0000
  C   C30       1.0  0.35690  0.76260  0.70860  1.0000
  C   C31       1.0  0.14310  0.73740  0.70860  1.0000
  C   C32       1.0  0.23740  0.85690  0.20860  1.0000
  H   H9        1.0  0.72730  0.31390  0.81540  1.0000
  H   H10       1.0  0.68610  0.22730  0.31540  1.0000
  H   H11       1.0  0.81390  0.27270  0.31540  1.0000
  H   H12       1.0  0.77270  0.18610  0.81540  1.0000
  H   H13       1.0  0.27270  0.68610  0.18460  1.0000
  H   H14       1.0  0.31390  0.77270  0.68460  1.0000
  H   H15       1.0  0.18610  0.72730  0.68460  1.0000
  H   H16       1.0  0.22730  0.81390  0.18460  1.0000
  C   C33       1.0  0.78030  0.35700  0.72820  1.0000
  C   C34       1.0  0.64300  0.28030  0.22820  1.0000
  C   C35       1.0  0.85700  0.21970  0.22820  1.0000
  C   C36       1.0  0.71970  0.14300  0.72820  1.0000
  C   C37       1.0  0.21970  0.64300  0.27180  1.0000
  C   C38       1.0  0.35700  0.71970  0.77180  1.0000
  C   C39       1.0  0.14300  0.78030  0.77180  1.0000
  C   C40       1.0  0.28030  0.85700  0.27180  1.0000
  H   H17       1.0  0.80050  0.31430  0.71140  1.0000
  H   H18       1.0  0.68570  0.30050  0.21140  1.0000
  H   H19       1.0  0.81430  0.19950  0.21140  1.0000
  H   H20       1.0  0.69950  0.18570  0.71140  1.0000
  H   H21       1.0  0.19950  0.68570  0.28860  1.0000
  H   H22       1.0  0.31430  0.69950  0.78860  1.0000
  H   H23       1.0  0.18570  0.80050  0.78860  1.0000
  H   H24       1.0  0.30050  0.81430  0.28860  1.0000
  C   C41       1.0  0.79330  0.41970  0.69000  1.0000
  C   C42       1.0  0.58030  0.29330  0.19000  1.0000
  C   C43       1.0  0.91970  0.20670  0.19000  1.0000
  C   C44       1.0  0.70670  0.08030  0.69000  1.0000
  C   C45       1.0  0.20670  0.58030  0.31000  1.0000
  C   C46       1.0  0.41970  0.70670  0.81000  1.0000
  C   C47       1.0  0.08030  0.79330  0.81000  1.0000
  C   C48       1.0  0.29330  0.91970  0.31000  1.0000
  C   C49       1.0  0.84110  0.41990  0.62160  1.0000
  C   C50       1.0  0.58010  0.34110  0.12160  1.0000
  C   C51       1.0  0.91990  0.15890  0.12160  1.0000
  C   C52       1.0  0.65890  0.08010  0.62160  1.0000
  C   C53       1.0  0.15890  0.58010  0.37840  1.0000
  C   C54       1.0  0.41990  0.65890  0.87840  1.0000
  C   C55       1.0  0.08010  0.84110  0.87840  1.0000
  C   C56       1.0  0.34110  0.91990  0.37840  1.0000
  C   C57       1.0  0.76430  0.48270  0.71670  1.0000
  C   C58       1.0  0.51730  0.26430  0.21670  1.0000
  C   C59       1.0  0.98270  0.23570  0.21670  1.0000
  C   C60       1.0  0.73570  0.01730  0.71670  1.0000
  C   C61       1.0  0.23570  0.51730  0.28330  1.0000
  C   C62       1.0  0.48270  0.73570  0.78330  1.0000
  C   C63       1.0  0.01730  0.76430  0.78330  1.0000
  C   C64       1.0  0.26430  0.98270  0.28330  1.0000
  H   H25       1.0  0.77240  0.52540  0.69120  1.0000
  H   H26       1.0  0.47460  0.27240  0.19120  1.0000
  H   H27       1.0  0.02540  0.22760  0.19120  1.0000
  H   H28       1.0  0.72760  0.97460  0.69120  1.0000
  H   H29       1.0  0.22760  0.47460  0.30880  1.0000
  H   H30       1.0  0.52540  0.72760  0.80880  1.0000
  H   H31       1.0  0.97460  0.77240  0.80880  1.0000
  H   H32       1.0  0.27240  0.02540  0.30880  1.0000
  O   O17       1.0  0.87909  0.36682  0.60783  1.0000
  O   O18       1.0  0.63318  0.37909  0.10783  1.0000
  O   O19       1.0  0.86682  0.12091  0.10783  1.0000
  O   O20       1.0  0.62091  0.13318  0.60783  1.0000
  O   O21       1.0  0.12091  0.63318  0.39217  1.0000
  O   O22       1.0  0.36682  0.62091  0.89217  1.0000
  O   O23       1.0  0.13318  0.87909  0.89217  1.0000
  O   O24       1.0  0.37909  0.86682  0.39217  1.0000
  O   O25       1.0  0.84190  0.47506  0.58071  1.0000
  O   O26       1.0  0.52494  0.34190  0.08071  1.0000
  O   O27       1.0  0.97506  0.15810  0.08071  1.0000
  O   O28       1.0  0.65810  0.02494  0.58071  1.0000
  O   O29       1.0  0.15810  0.52494  0.41929  1.0000
  O   O30       1.0  0.47506  0.65810  0.91929  1.0000
  O   O31       1.0  0.02494  0.84190  0.91929  1.0000
  O   O32       1.0  0.34190  0.97506  0.41929  1.0000
