data_image0
_chemical_formula_structural       Zn6Cl4O24C8H4C4H4C8H4C4H4C16H4C4H4C4
_chemical_formula_sum              "Zn6 Cl4 O24 C48 H24"
_cell_length_a       18.9555
_cell_length_b       10.2697
_cell_length_c       17.0673
_cell_angle_alpha    90
_cell_angle_beta     99.486
_cell_angle_gamma    90

_space_group_name_H-M_alt    "P 1"
_space_group_IT_number       1

loop_
  _space_group_symop_operation_xyz
  'x, y, z'

loop_
  _atom_site_type_symbol
  _atom_site_label
  _atom_site_symmetry_multiplicity
  _atom_site_fract_x
  _atom_site_fract_y
  _atom_site_fract_z
  _atom_site_occupancy
  Zn  Zn1       1.0  0.31534  0.57718  0.45648  1.0000
  Zn  Zn2       1.0  0.68466  0.07718  0.04352  1.0000
  Zn  Zn3       1.0  0.68466  0.42282  0.54353  1.0000
  Zn  Zn4       1.0  0.31534  0.92282  0.95648  1.0000
  Zn  Zn5       1.0  0.50000  0.50000  0.50000  1.0000
  Zn  Zn6       1.0  0.50000  0.00000  0.00000  1.0000
  Cl  Cl1       1.0  0.19587  0.62181  0.43457  1.0000
  Cl  Cl2       1.0  0.80413  0.12181  0.06543  1.0000
  Cl  Cl3       1.0  0.80413  0.37819  0.56543  1.0000
  Cl  Cl4       1.0  0.19587  0.87819  0.93457  1.0000
  O   O1        1.0  0.43340  0.51263  0.58896  1.0000
  O   O2        1.0  0.56660  0.01263  0.91104  1.0000
  O   O3        1.0  0.56660  0.48737  0.41104  1.0000
  O   O4        1.0  0.43340  0.98737  0.08896  1.0000
  O   O5        1.0  0.31959  0.45802  0.54836  1.0000
  O   O6        1.0  0.68041  0.95802  0.95164  1.0000
  O   O7        1.0  0.68041  0.54198  0.45164  1.0000
  O   O8        1.0  0.31959  0.04198  0.04836  1.0000
  O   O9        1.0  0.43080  0.12148  0.92562  1.0000
  O   O10       1.0  0.56920  0.62148  0.57438  1.0000
  O   O11       1.0  0.56920  0.87852  0.07438  1.0000
  O   O12       1.0  0.43080  0.37852  0.42562  1.0000
  O   O13       1.0  0.33135  0.02337  0.86313  1.0000
  O   O14       1.0  0.66865  0.52337  0.63687  1.0000
  O   O15       1.0  0.66865  0.97663  0.13687  1.0000
  O   O16       1.0  0.33135  0.47663  0.36313  1.0000
  O   O17       1.0  0.45786  0.66330  0.44067  1.0000
  O   O18       1.0  0.54214  0.16330  0.05933  1.0000
  O   O19       1.0  0.54214  0.33670  0.55933  1.0000
  O   O20       1.0  0.45786  0.83670  0.94067  1.0000
  O   O21       1.0  0.35896  0.75195  0.47136  1.0000
  O   O22       1.0  0.64104  0.25195  0.02864  1.0000
  O   O23       1.0  0.64104  0.24805  0.52864  1.0000
  O   O24       1.0  0.35896  0.74805  0.97136  1.0000
  C   C1        1.0  0.37974  0.35920  0.66574  1.0000
  C   C2        1.0  0.62026  0.85920  0.83426  1.0000
  C   C3        1.0  0.62026  0.64080  0.33426  1.0000
  C   C4        1.0  0.37974  0.14080  0.16574  1.0000
  C   C5        1.0  0.32717  0.26630  0.66658  1.0000
  C   C6        1.0  0.67283  0.76630  0.83342  1.0000
  C   C7        1.0  0.67283  0.73370  0.33342  1.0000
  C   C8        1.0  0.32717  0.23370  0.16658  1.0000
  H   H1        1.0  0.29010  0.26020  0.62370  1.0000
  H   H2        1.0  0.70990  0.76020  0.87630  1.0000
  H   H3        1.0  0.70990  0.73980  0.37630  1.0000
  H   H4        1.0  0.29010  0.23980  0.12370  1.0000
  C   C9        1.0  0.32878  0.18190  0.73026  1.0000
  C   C10       1.0  0.67122  0.68190  0.76974  1.0000
  C   C11       1.0  0.67122  0.81810  0.26974  1.0000
  C   C12       1.0  0.32878  0.31810  0.23026  1.0000
  H   H5        1.0  0.29360  0.11840  0.72910  1.0000
  H   H6        1.0  0.70640  0.61840  0.77090  1.0000
  H   H7        1.0  0.70640  0.88160  0.27090  1.0000
  H   H8        1.0  0.29360  0.38160  0.22910  1.0000
  C   C13       1.0  0.38249  0.19190  0.79560  1.0000
  C   C14       1.0  0.61751  0.69190  0.70440  1.0000
  C   C15       1.0  0.61751  0.80810  0.20440  1.0000
  C   C16       1.0  0.38249  0.30810  0.29560  1.0000
  C   C17       1.0  0.43484  0.28590  0.79558  1.0000
  C   C18       1.0  0.56516  0.78590  0.70442  1.0000
  C   C19       1.0  0.56516  0.71410  0.20442  1.0000
  C   C20       1.0  0.43484  0.21410  0.29558  1.0000
  H   H9        1.0  0.47070  0.29460  0.83950  1.0000
  H   H10       1.0  0.52930  0.79460  0.66050  1.0000
  H   H11       1.0  0.52930  0.70540  0.16050  1.0000
  H   H12       1.0  0.47070  0.20540  0.33950  1.0000
  C   C21       1.0  0.43432  0.36730  0.73060  1.0000
  C   C22       1.0  0.56568  0.86730  0.76940  1.0000
  C   C23       1.0  0.56568  0.63270  0.26940  1.0000
  C   C24       1.0  0.43432  0.13270  0.23060  1.0000
  H   H13       1.0  0.47080  0.42780  0.73050  1.0000
  H   H14       1.0  0.52920  0.92780  0.76950  1.0000
  H   H15       1.0  0.52920  0.57220  0.26950  1.0000
  H   H16       1.0  0.47080  0.07220  0.23050  1.0000
  C   C25       1.0  0.37844  0.44960  0.59601  1.0000
  C   C26       1.0  0.62156  0.94960  0.90399  1.0000
  C   C27       1.0  0.62156  0.55040  0.40399  1.0000
  C   C28       1.0  0.37844  0.05040  0.09601  1.0000
  C   C29       1.0  0.38244  0.10460  0.86747  1.0000
  C   C30       1.0  0.61756  0.60460  0.63253  1.0000
  C   C31       1.0  0.61756  0.89540  0.13253  1.0000
  C   C32       1.0  0.38244  0.39540  0.36747  1.0000
  C   C33       1.0  0.46265  0.88420  0.48144  1.0000
  C   C34       1.0  0.53735  0.38420  0.01856  1.0000
  C   C35       1.0  0.53735  0.11580  0.51856  1.0000
  C   C36       1.0  0.46265  0.61580  0.98144  1.0000
  C   C37       1.0  0.53391  0.89440  0.47230  1.0000
  C   C38       1.0  0.46609  0.39440  0.02770  1.0000
  C   C39       1.0  0.46609  0.10560  0.52770  1.0000
  C   C40       1.0  0.53391  0.60560  0.97230  1.0000
  H   H17       1.0  0.55690  0.82380  0.45360  1.0000
  H   H18       1.0  0.44310  0.32380  0.04640  1.0000
  H   H19       1.0  0.44310  0.17620  0.54640  1.0000
  H   H20       1.0  0.55690  0.67620  0.95360  1.0000
  C   C41       1.0  0.42923  0.99030  0.50900  1.0000
  C   C42       1.0  0.57077  0.49030  0.99100  1.0000
  C   C43       1.0  0.57077  0.00970  0.49100  1.0000
  C   C44       1.0  0.42923  0.50970  0.00900  1.0000
  H   H21       1.0  0.38150  0.98420  0.51500  1.0000
  H   H22       1.0  0.61850  0.48420  0.98500  1.0000
  H   H23       1.0  0.61850  0.01580  0.48500  1.0000
  H   H24       1.0  0.38150  0.51580  0.01500  1.0000
  C   C45       1.0  0.42430  0.75720  0.46351  1.0000
  C   C46       1.0  0.57570  0.25720  0.03649  1.0000
  C   C47       1.0  0.57570  0.24280  0.53649  1.0000
  C   C48       1.0  0.42430  0.74280  0.96351  1.0000
