data_image0
_chemical_formula_structural       Tb8Cl4O48C8H4C4H4C8H4C4H4C16H4C4H4C8H4C4H4C12H4C8H4C8H4C8H4C4
_chemical_formula_sum              "Tb8 Cl4 O48 C96 H48"
_cell_length_a       8.0556
_cell_length_b       21.3294
_cell_length_c       18.3473
_cell_angle_alpha    90
_cell_angle_beta     90.014
_cell_angle_gamma    90

_space_group_name_H-M_alt    "P 1"
_space_group_IT_number       1

loop_
  _space_group_symop_operation_xyz
  'x, y, z'

loop_
  _atom_site_type_symbol
  _atom_site_label
  _atom_site_symmetry_multiplicity
  _atom_site_fract_x
  _atom_site_fract_y
  _atom_site_fract_z
  _atom_site_occupancy
  Tb  Tb1       1.0  0.15774  0.63136  0.27765  1.0000
  Tb  Tb2       1.0  0.84226  0.13136  0.22235  1.0000
  Tb  Tb3       1.0  0.84226  0.36864  0.72235  1.0000
  Tb  Tb4       1.0  0.15774  0.86864  0.77765  1.0000
  Tb  Tb5       1.0  0.64551  0.58065  0.25073  1.0000
  Tb  Tb6       1.0  0.35449  0.08065  0.24927  1.0000
  Tb  Tb7       1.0  0.35449  0.41935  0.74927  1.0000
  Tb  Tb8       1.0  0.64551  0.91935  0.75073  1.0000
  Cl  Cl1       1.0  0.44280  0.60181  0.36815  1.0000
  Cl  Cl2       1.0  0.55720  0.10181  0.13185  1.0000
  Cl  Cl3       1.0  0.55720  0.39819  0.63185  1.0000
  Cl  Cl4       1.0  0.44280  0.89819  0.86815  1.0000
  O   O1        1.0  0.97790  0.70690  0.23780  1.0000
  O   O2        1.0  0.02210  0.20690  0.26220  1.0000
  O   O3        1.0  0.02210  0.29310  0.76220  1.0000
  O   O4        1.0  0.97790  0.79310  0.73780  1.0000
  O   O5        1.0  0.71140  0.68490  0.25530  1.0000
  O   O6        1.0  0.28860  0.18490  0.24470  1.0000
  O   O7        1.0  0.28860  0.31510  0.74470  1.0000
  O   O8        1.0  0.71140  0.81510  0.75530  1.0000
  O   O9        1.0  0.80020  0.02270  0.22780  1.0000
  O   O10       1.0  0.19980  0.52270  0.27220  1.0000
  O   O11       1.0  0.19980  0.97730  0.77220  1.0000
  O   O12       1.0  0.80020  0.47730  0.72780  1.0000
  O   O13       1.0  0.54710  0.00470  0.27100  1.0000
  O   O14       1.0  0.45290  0.50470  0.22900  1.0000
  O   O15       1.0  0.45290  0.99530  0.72900  1.0000
  O   O16       1.0  0.54710  0.49530  0.77100  1.0000
  O   O17       1.0  0.28420  0.76510  0.82080  1.0000
  O   O18       1.0  0.71580  0.26510  0.67920  1.0000
  O   O19       1.0  0.71580  0.23490  0.17920  1.0000
  O   O20       1.0  0.28420  0.73490  0.32080  1.0000
  O   O21       1.0  0.10480  0.81480  0.88970  1.0000
  O   O22       1.0  0.89520  0.31480  0.61030  1.0000
  O   O23       1.0  0.89520  0.18520  0.11030  1.0000
  O   O24       1.0  0.10480  0.68520  0.38970  1.0000
  O   O25       1.0  0.57680  0.60940  0.12880  1.0000
  O   O26       1.0  0.42320  0.10940  0.37120  1.0000
  O   O27       1.0  0.42320  0.39060  0.87120  1.0000
  O   O28       1.0  0.57680  0.89060  0.62880  1.0000
  O   O29       1.0  0.38140  0.64650  0.19870  1.0000
  O   O30       1.0  0.61860  0.14650  0.30130  1.0000
  O   O31       1.0  0.61860  0.35350  0.80130  1.0000
  O   O32       1.0  0.38140  0.85350  0.69870  1.0000
  O   O33       1.0  0.06070  0.59360  0.16240  1.0000
  O   O34       1.0  0.93930  0.09360  0.33760  1.0000
  O   O35       1.0  0.93930  0.40640  0.83760  1.0000
  O   O36       1.0  0.06070  0.90640  0.66240  1.0000
  O   O37       1.0  0.83820  0.53420  0.17990  1.0000
  O   O38       1.0  0.16180  0.03420  0.32010  1.0000
  O   O39       1.0  0.16180  0.46580  0.82010  1.0000
  O   O40       1.0  0.83820  0.96580  0.67990  1.0000
  O   O41       1.0  0.90640  0.58650  0.32930  1.0000
  O   O42       1.0  0.09360  0.08650  0.17070  1.0000
  O   O43       1.0  0.09360  0.41350  0.67070  1.0000
  O   O44       1.0  0.90640  0.91350  0.82930  1.0000
  O   O45       1.0  0.74930  0.50230  0.33380  1.0000
  O   O46       1.0  0.25070  0.00230  0.16620  1.0000
  O   O47       1.0  0.25070  0.49770  0.66620  1.0000
  O   O48       1.0  0.74930  0.99770  0.83380  1.0000
  C   C1        1.0  0.79450  0.79160  0.25630  1.0000
  C   C2        1.0  0.20550  0.29160  0.24370  1.0000
  C   C3        1.0  0.20550  0.20840  0.74370  1.0000
  C   C4        1.0  0.79450  0.70840  0.75630  1.0000
  C   C5        1.0  0.92400  0.83390  0.24780  1.0000
  C   C6        1.0  0.07600  0.33390  0.25220  1.0000
  C   C7        1.0  0.07600  0.16610  0.75220  1.0000
  C   C8        1.0  0.92400  0.66610  0.74780  1.0000
  H   H1        1.0  0.03200  0.81950  0.24160  1.0000
  H   H2        1.0  0.96800  0.31950  0.25840  1.0000
  H   H3        1.0  0.96800  0.18050  0.75840  1.0000
  H   H4        1.0  0.03200  0.68050  0.74160  1.0000
  C   C9        1.0  0.89170  0.89780  0.24860  1.0000
  C   C10       1.0  0.10830  0.39780  0.25140  1.0000
  C   C11       1.0  0.10830  0.10220  0.75140  1.0000
  C   C12       1.0  0.89170  0.60220  0.74860  1.0000
  H   H5        1.0  0.97790  0.92660  0.24440  1.0000
  H   H6        1.0  0.02210  0.42660  0.25560  1.0000
  H   H7        1.0  0.02210  0.07340  0.75560  1.0000
  H   H8        1.0  0.97790  0.57340  0.74440  1.0000
  C   C13       1.0  0.72690  0.91820  0.25580  1.0000
  C   C14       1.0  0.27310  0.41820  0.24420  1.0000
  C   C15       1.0  0.27310  0.08180  0.74420  1.0000
  C   C16       1.0  0.72690  0.58180  0.75580  1.0000
  C   C17       1.0  0.59740  0.87600  0.26490  1.0000
  C   C18       1.0  0.40260  0.37600  0.23510  1.0000
  C   C19       1.0  0.40260  0.12400  0.73510  1.0000
  C   C20       1.0  0.59740  0.62400  0.76490  1.0000
  H   H9        1.0  0.48910  0.89000  0.27140  1.0000
  H   H10       1.0  0.51090  0.39000  0.22860  1.0000
  H   H11       1.0  0.51090  0.11000  0.72860  1.0000
  H   H12       1.0  0.48910  0.61000  0.77140  1.0000
  C   C21       1.0  0.63290  0.81200  0.26400  1.0000
  C   C22       1.0  0.36710  0.31200  0.23600  1.0000
  C   C23       1.0  0.36710  0.18800  0.73600  1.0000
  C   C24       1.0  0.63290  0.68800  0.76400  1.0000
  H   H13       1.0  0.54730  0.78300  0.26860  1.0000
  H   H14       1.0  0.45270  0.28300  0.23140  1.0000
  H   H15       1.0  0.45270  0.21700  0.73140  1.0000
  H   H16       1.0  0.54730  0.71700  0.76860  1.0000
  C   C25       1.0  0.83330  0.72240  0.24990  1.0000
  C   C26       1.0  0.16670  0.22240  0.25010  1.0000
  C   C27       1.0  0.16670  0.27760  0.75010  1.0000
  C   C28       1.0  0.83330  0.77760  0.74990  1.0000
  C   C29       1.0  0.68900  0.98810  0.25110  1.0000
  C   C30       1.0  0.31100  0.48810  0.24890  1.0000
  C   C31       1.0  0.31100  0.01190  0.74890  1.0000
  C   C32       1.0  0.68900  0.51190  0.75110  1.0000
  C   C33       1.0  0.26820  0.73710  0.94730  1.0000
  C   C34       1.0  0.73180  0.23710  0.55270  1.0000
  C   C35       1.0  0.73180  0.26290  0.05270  1.0000
  C   C36       1.0  0.26820  0.76290  0.44730  1.0000
  C   C37       1.0  0.36790  0.68440  0.94070  1.0000
  C   C38       1.0  0.63210  0.18440  0.55930  1.0000
  C   C39       1.0  0.63210  0.31560  0.05930  1.0000
  C   C40       1.0  0.36790  0.81560  0.44070  1.0000
  H   H17       1.0  0.39840  0.67020  0.89470  1.0000
  H   H18       1.0  0.60160  0.17020  0.60530  1.0000
  H   H19       1.0  0.60160  0.32980  0.10530  1.0000
  H   H20       1.0  0.39840  0.82980  0.39470  1.0000
  C   C41       1.0  0.42230  0.65280  0.00240  1.0000
  C   C42       1.0  0.57770  0.15280  0.49760  1.0000
  C   C43       1.0  0.57770  0.34720  0.99760  1.0000
  C   C44       1.0  0.42230  0.84720  0.50240  1.0000
  H   H21       1.0  0.48970  0.61760  0.99750  1.0000
  H   H22       1.0  0.51030  0.11760  0.50250  1.0000
  H   H23       1.0  0.51030  0.38240  0.00250  1.0000
  H   H24       1.0  0.48970  0.88240  0.49750  1.0000
  C   C45       1.0  0.37670  0.67330  0.07160  1.0000
  C   C46       1.0  0.62330  0.17330  0.42840  1.0000
  C   C47       1.0  0.62330  0.32670  0.92840  1.0000
  C   C48       1.0  0.37670  0.82670  0.57160  1.0000
  C   C49       1.0  0.27350  0.72560  0.07870  1.0000
  C   C50       1.0  0.72650  0.22560  0.42130  1.0000
  C   C51       1.0  0.72650  0.27440  0.92130  1.0000
  C   C52       1.0  0.27350  0.77440  0.57870  1.0000
  H   H25       1.0  0.23920  0.73900  0.12450  1.0000
  H   H26       1.0  0.76080  0.23900  0.37550  1.0000
  H   H27       1.0  0.76080  0.26100  0.87550  1.0000
  H   H28       1.0  0.23920  0.76100  0.62450  1.0000
  C   C53       1.0  0.22280  0.75710  0.01630  1.0000
  C   C54       1.0  0.77720  0.25710  0.48370  1.0000
  C   C55       1.0  0.77720  0.24290  0.98370  1.0000
  C   C56       1.0  0.22280  0.74290  0.51630  1.0000
  H   H29       1.0  0.15670  0.79260  0.02100  1.0000
  H   H30       1.0  0.84330  0.29260  0.47900  1.0000
  H   H31       1.0  0.84330  0.20740  0.97900  1.0000
  H   H32       1.0  0.15670  0.70740  0.52100  1.0000
  C   C57       1.0  0.21650  0.77370  0.88060  1.0000
  C   C58       1.0  0.78350  0.27370  0.61940  1.0000
  C   C59       1.0  0.78350  0.22630  0.11940  1.0000
  C   C60       1.0  0.21650  0.72630  0.38060  1.0000
  C   C61       1.0  0.44750  0.64030  0.13690  1.0000
  C   C62       1.0  0.55250  0.14030  0.36310  1.0000
  C   C63       1.0  0.55250  0.35970  0.86310  1.0000
  C   C64       1.0  0.44750  0.85970  0.63690  1.0000
  C   C65       1.0  0.85080  0.49560  0.03580  1.0000
  C   C66       1.0  0.14920  0.99560  0.46420  1.0000
  C   C67       1.0  0.14920  0.50440  0.96420  1.0000
  C   C68       1.0  0.85080  0.00440  0.53580  1.0000
  H   H33       1.0  0.74940  0.49220  0.05970  1.0000
  H   H34       1.0  0.25060  0.99220  0.44030  1.0000
  H   H35       1.0  0.25060  0.50780  0.94030  1.0000
  H   H36       1.0  0.74940  0.00780  0.55970  1.0000
  C   C69       1.0  0.97920  0.52390  0.06990  1.0000
  C   C70       1.0  0.02080  0.02390  0.43010  1.0000
  C   C71       1.0  0.02080  0.47610  0.93010  1.0000
  C   C72       1.0  0.97920  0.97610  0.56990  1.0000
  C   C73       1.0  0.13350  0.52830  0.03350  1.0000
  C   C74       1.0  0.86650  0.02830  0.46650  1.0000
  C   C75       1.0  0.86650  0.47170  0.96650  1.0000
  C   C76       1.0  0.13350  0.97170  0.53350  1.0000
  H   H37       1.0  0.22370  0.54730  0.05620  1.0000
  H   H38       1.0  0.77630  0.04730  0.44380  1.0000
  H   H39       1.0  0.77630  0.45270  0.94380  1.0000
  H   H40       1.0  0.22370  0.95270  0.55620  1.0000
  C   C77       1.0  0.95850  0.55340  0.14350  1.0000
  C   C78       1.0  0.04150  0.05340  0.35650  1.0000
  C   C79       1.0  0.04150  0.44660  0.85650  1.0000
  C   C80       1.0  0.95850  0.94660  0.64350  1.0000
  C   C81       1.0  0.04280  0.55720  0.46850  1.0000
  C   C82       1.0  0.95720  0.05720  0.03150  1.0000
  C   C83       1.0  0.95720  0.44280  0.53150  1.0000
  C   C84       1.0  0.04280  0.94280  0.96850  1.0000
  H   H41       1.0  0.07120  0.59560  0.44790  1.0000
  H   H42       1.0  0.92880  0.09560  0.05210  1.0000
  H   H43       1.0  0.92880  0.40440  0.55210  1.0000
  H   H44       1.0  0.07120  0.90440  0.94790  1.0000
  C   C85       1.0  0.94010  0.51630  0.43150  1.0000
  C   C86       1.0  0.05990  0.01630  0.06850  1.0000
  C   C87       1.0  0.05990  0.48370  0.56850  1.0000
  C   C88       1.0  0.94010  0.98370  0.93150  1.0000
  C   C89       1.0  0.89620  0.45950  0.46270  1.0000
  C   C90       1.0  0.10380  0.95950  0.03730  1.0000
  C   C91       1.0  0.10380  0.54050  0.53730  1.0000
  C   C92       1.0  0.89620  0.04050  0.96270  1.0000
  H   H45       1.0  0.82590  0.43230  0.43790  1.0000
  H   H46       1.0  0.17410  0.93230  0.06210  1.0000
  H   H47       1.0  0.17410  0.56770  0.56210  1.0000
  H   H48       1.0  0.82590  0.06770  0.93790  1.0000
  C   C93       1.0  0.86250  0.53460  0.36070  1.0000
  C   C94       1.0  0.13750  0.03460  0.13930  1.0000
  C   C95       1.0  0.13750  0.46540  0.63930  1.0000
  C   C96       1.0  0.86250  0.96540  0.86070  1.0000
