data_image0
_chemical_formula_structural       Eu8Cl4O48C8H4C4H4C8H4C4H4C16H4C4H4C8H4C4H4C12H4C8H4C8H4C8H4C4
_chemical_formula_sum              "Eu8 Cl4 O48 C96 H48"
_cell_length_a       8.0556
_cell_length_b       21.4095
_cell_length_c       18.3825
_cell_angle_alpha    90
_cell_angle_beta     90.208
_cell_angle_gamma    90

_space_group_name_H-M_alt    "P 1"
_space_group_IT_number       1

loop_
  _space_group_symop_operation_xyz
  'x, y, z'

loop_
  _atom_site_type_symbol
  _atom_site_label
  _atom_site_symmetry_multiplicity
  _atom_site_fract_x
  _atom_site_fract_y
  _atom_site_fract_z
  _atom_site_occupancy
  Eu  Eu1       1.0  0.15201  0.63162  0.27541  1.0000
  Eu  Eu2       1.0  0.84799  0.13162  0.22459  1.0000
  Eu  Eu3       1.0  0.84799  0.36838  0.72459  1.0000
  Eu  Eu4       1.0  0.15201  0.86838  0.77541  1.0000
  Eu  Eu5       1.0  0.64434  0.58116  0.25032  1.0000
  Eu  Eu6       1.0  0.35566  0.08116  0.24968  1.0000
  Eu  Eu7       1.0  0.35566  0.41884  0.74968  1.0000
  Eu  Eu8       1.0  0.64434  0.91884  0.75032  1.0000
  Cl  Cl1       1.0  0.43300  0.59927  0.36704  1.0000
  Cl  Cl2       1.0  0.56700  0.09927  0.13296  1.0000
  Cl  Cl3       1.0  0.56700  0.40073  0.63296  1.0000
  Cl  Cl4       1.0  0.43300  0.90073  0.86704  1.0000
  O   O1        1.0  0.03220  0.20750  0.26430  1.0000
  O   O2        1.0  0.96780  0.70750  0.23570  1.0000
  O   O3        1.0  0.96780  0.79250  0.73570  1.0000
  O   O4        1.0  0.03220  0.29250  0.76430  1.0000
  O   O5        1.0  0.29400  0.18670  0.23690  1.0000
  O   O6        1.0  0.70600  0.68670  0.26310  1.0000
  O   O7        1.0  0.70600  0.81330  0.76310  1.0000
  O   O8        1.0  0.29400  0.31330  0.73690  1.0000
  O   O9        1.0  0.19360  0.52250  0.26560  1.0000
  O   O10       1.0  0.80640  0.02250  0.23440  1.0000
  O   O11       1.0  0.80640  0.47750  0.73440  1.0000
  O   O12       1.0  0.19360  0.97750  0.76560  1.0000
  O   O13       1.0  0.45000  0.50610  0.22480  1.0000
  O   O14       1.0  0.55000  0.00610  0.27520  1.0000
  O   O15       1.0  0.55000  0.49390  0.77520  1.0000
  O   O16       1.0  0.45000  0.99390  0.72480  1.0000
  O   O17       1.0  0.27740  0.76500  0.82000  1.0000
  O   O18       1.0  0.72260  0.26500  0.68000  1.0000
  O   O19       1.0  0.72260  0.23500  0.18000  1.0000
  O   O20       1.0  0.27740  0.73500  0.32000  1.0000
  O   O21       1.0  0.09680  0.81420  0.88830  1.0000
  O   O22       1.0  0.90320  0.31420  0.61170  1.0000
  O   O23       1.0  0.90320  0.18580  0.11170  1.0000
  O   O24       1.0  0.09680  0.68580  0.38830  1.0000
  O   O25       1.0  0.58050  0.61440  0.12790  1.0000
  O   O26       1.0  0.41950  0.11440  0.37210  1.0000
  O   O27       1.0  0.41950  0.38560  0.87210  1.0000
  O   O28       1.0  0.58050  0.88560  0.62790  1.0000
  O   O29       1.0  0.37930  0.64730  0.19640  1.0000
  O   O30       1.0  0.62070  0.14730  0.30360  1.0000
  O   O31       1.0  0.62070  0.35270  0.80360  1.0000
  O   O32       1.0  0.37930  0.85270  0.69640  1.0000
  O   O33       1.0  0.04530  0.59500  0.16130  1.0000
  O   O34       1.0  0.95470  0.09500  0.33870  1.0000
  O   O35       1.0  0.95470  0.40500  0.83870  1.0000
  O   O36       1.0  0.04530  0.90500  0.66130  1.0000
  O   O37       1.0  0.83350  0.53120  0.17870  1.0000
  O   O38       1.0  0.16650  0.03120  0.32130  1.0000
  O   O39       1.0  0.16650  0.46880  0.82130  1.0000
  O   O40       1.0  0.83350  0.96880  0.67870  1.0000
  O   O41       1.0  0.90350  0.58480  0.32920  1.0000
  O   O42       1.0  0.09650  0.08480  0.17080  1.0000
  O   O43       1.0  0.09650  0.41520  0.67080  1.0000
  O   O44       1.0  0.90350  0.91520  0.82920  1.0000
  O   O45       1.0  0.74570  0.50130  0.33480  1.0000
  O   O46       1.0  0.25430  0.00130  0.16520  1.0000
  O   O47       1.0  0.25430  0.49870  0.66520  1.0000
  O   O48       1.0  0.74570  0.99870  0.83480  1.0000
  C   C1        1.0  0.20850  0.29300  0.24010  1.0000
  C   C2        1.0  0.79150  0.79300  0.25990  1.0000
  C   C3        1.0  0.79150  0.70700  0.75990  1.0000
  C   C4        1.0  0.20850  0.20700  0.74010  1.0000
  C   C5        1.0  0.07770  0.33370  0.24610  1.0000
  C   C6        1.0  0.92230  0.83370  0.25390  1.0000
  C   C7        1.0  0.92230  0.66630  0.75390  1.0000
  C   C8        1.0  0.07770  0.16630  0.74610  1.0000
  H   H1        1.0  0.96980  0.31880  0.25100  1.0000
  H   H2        1.0  0.03020  0.81880  0.24900  1.0000
  H   H3        1.0  0.03020  0.68120  0.74900  1.0000
  H   H4        1.0  0.96980  0.18120  0.75100  1.0000
  C   C9        1.0  0.10970  0.39800  0.24460  1.0000
  C   C10       1.0  0.89030  0.89800  0.25540  1.0000
  C   C11       1.0  0.89030  0.60200  0.75540  1.0000
  C   C12       1.0  0.10970  0.10200  0.74460  1.0000
  H   H5        1.0  0.02270  0.42640  0.24770  1.0000
  H   H6        1.0  0.97730  0.92640  0.25230  1.0000
  H   H7        1.0  0.97730  0.57360  0.75230  1.0000
  H   H8        1.0  0.02270  0.07360  0.74770  1.0000
  C   C13       1.0  0.27200  0.41920  0.23870  1.0000
  C   C14       1.0  0.72800  0.91920  0.26130  1.0000
  C   C15       1.0  0.72800  0.58080  0.76130  1.0000
  C   C16       1.0  0.27200  0.08080  0.73870  1.0000
  C   C17       1.0  0.40330  0.37690  0.23180  1.0000
  C   C18       1.0  0.59670  0.87690  0.26820  1.0000
  C   C19       1.0  0.59670  0.62310  0.76820  1.0000
  C   C20       1.0  0.40330  0.12310  0.73180  1.0000
  H   H9        1.0  0.51150  0.39130  0.22630  1.0000
  H   H10       1.0  0.48850  0.89130  0.27370  1.0000
  H   H11       1.0  0.48850  0.60870  0.77370  1.0000
  H   H12       1.0  0.51150  0.10870  0.72630  1.0000
  C   C21       1.0  0.37090  0.31300  0.23310  1.0000
  C   C22       1.0  0.62910  0.81300  0.26690  1.0000
  C   C23       1.0  0.62910  0.68700  0.76690  1.0000
  C   C24       1.0  0.37090  0.18700  0.73310  1.0000
  H   H13       1.0  0.45700  0.28430  0.22930  1.0000
  H   H14       1.0  0.54300  0.78430  0.27070  1.0000
  H   H15       1.0  0.54300  0.71570  0.77070  1.0000
  H   H16       1.0  0.45700  0.21570  0.72930  1.0000
  C   C25       1.0  0.17350  0.22370  0.24740  1.0000
  C   C26       1.0  0.82650  0.72370  0.25260  1.0000
  C   C27       1.0  0.82650  0.77630  0.75260  1.0000
  C   C28       1.0  0.17350  0.27630  0.74740  1.0000
  C   C29       1.0  0.30730  0.48840  0.24370  1.0000
  C   C30       1.0  0.69270  0.98840  0.25630  1.0000
  C   C31       1.0  0.69270  0.51160  0.75630  1.0000
  C   C32       1.0  0.30730  0.01160  0.74370  1.0000
  C   C33       1.0  0.26630  0.73790  0.94620  1.0000
  C   C34       1.0  0.73370  0.23790  0.55380  1.0000
  C   C35       1.0  0.73370  0.26210  0.05380  1.0000
  C   C36       1.0  0.26630  0.76210  0.44620  1.0000
  C   C37       1.0  0.36310  0.68540  0.93980  1.0000
  C   C38       1.0  0.63690  0.18540  0.56020  1.0000
  C   C39       1.0  0.63690  0.31460  0.06020  1.0000
  C   C40       1.0  0.36310  0.81460  0.43980  1.0000
  H   H17       1.0  0.39050  0.67060  0.89390  1.0000
  H   H18       1.0  0.60950  0.17060  0.60610  1.0000
  H   H19       1.0  0.60950  0.32940  0.10610  1.0000
  H   H20       1.0  0.39050  0.82940  0.39390  1.0000
  C   C41       1.0  0.42050  0.65420  0.00110  1.0000
  C   C42       1.0  0.57950  0.15420  0.49890  1.0000
  C   C43       1.0  0.57950  0.34580  0.99890  1.0000
  C   C44       1.0  0.42050  0.84580  0.50110  1.0000
  H   H21       1.0  0.48680  0.61890  0.99600  1.0000
  H   H22       1.0  0.51320  0.11890  0.50400  1.0000
  H   H23       1.0  0.51320  0.38110  0.00400  1.0000
  H   H24       1.0  0.48680  0.88110  0.49600  1.0000
  C   C45       1.0  0.37880  0.67580  0.07020  1.0000
  C   C46       1.0  0.62120  0.17580  0.42980  1.0000
  C   C47       1.0  0.62120  0.32420  0.92980  1.0000
  C   C48       1.0  0.37880  0.82420  0.57020  1.0000
  C   C49       1.0  0.27720  0.72850  0.07750  1.0000
  C   C50       1.0  0.72280  0.22850  0.42250  1.0000
  C   C51       1.0  0.72280  0.27150  0.92250  1.0000
  C   C52       1.0  0.27720  0.77150  0.57750  1.0000
  H   H25       1.0  0.24620  0.74260  0.12330  1.0000
  H   H26       1.0  0.75380  0.24260  0.37670  1.0000
  H   H27       1.0  0.75380  0.25740  0.87670  1.0000
  H   H28       1.0  0.24620  0.75740  0.62330  1.0000
  C   C53       1.0  0.22390  0.75930  0.01540  1.0000
  C   C54       1.0  0.77610  0.25930  0.48460  1.0000
  C   C55       1.0  0.77610  0.24070  0.98460  1.0000
  C   C56       1.0  0.22390  0.74070  0.51540  1.0000
  H   H29       1.0  0.15860  0.79490  0.01990  1.0000
  H   H30       1.0  0.84140  0.29490  0.48010  1.0000
  H   H31       1.0  0.84140  0.20510  0.98010  1.0000
  H   H32       1.0  0.15860  0.70510  0.51990  1.0000
  C   C57       1.0  0.21110  0.77410  0.87990  1.0000
  C   C58       1.0  0.78890  0.27410  0.62010  1.0000
  C   C59       1.0  0.78890  0.22590  0.12010  1.0000
  C   C60       1.0  0.21110  0.72590  0.37990  1.0000
  C   C61       1.0  0.45100  0.64350  0.13540  1.0000
  C   C62       1.0  0.54900  0.14350  0.36460  1.0000
  C   C63       1.0  0.54900  0.35650  0.86460  1.0000
  C   C64       1.0  0.45100  0.85650  0.63540  1.0000
  C   C65       1.0  0.85380  0.49120  0.03580  1.0000
  C   C66       1.0  0.14620  0.99120  0.46420  1.0000
  C   C67       1.0  0.14620  0.50880  0.96420  1.0000
  C   C68       1.0  0.85380  0.00880  0.53580  1.0000
  H   H33       1.0  0.75460  0.48430  0.06030  1.0000
  H   H34       1.0  0.24540  0.98430  0.43970  1.0000
  H   H35       1.0  0.24540  0.51570  0.93970  1.0000
  H   H36       1.0  0.75460  0.01570  0.56030  1.0000
  C   C69       1.0  0.97540  0.52380  0.06920  1.0000
  C   C70       1.0  0.02460  0.02380  0.43080  1.0000
  C   C71       1.0  0.02460  0.47620  0.93080  1.0000
  C   C72       1.0  0.97540  0.97620  0.56920  1.0000
  C   C73       1.0  0.12710  0.53230  0.03370  1.0000
  C   C74       1.0  0.87290  0.03230  0.46630  1.0000
  C   C75       1.0  0.87290  0.46770  0.96630  1.0000
  C   C76       1.0  0.12710  0.96770  0.53370  1.0000
  H   H37       1.0  0.21380  0.55330  0.05660  1.0000
  H   H38       1.0  0.78620  0.05330  0.44340  1.0000
  H   H39       1.0  0.78620  0.44670  0.94340  1.0000
  H   H40       1.0  0.21380  0.94670  0.55660  1.0000
  C   C77       1.0  0.94710  0.55190  0.14250  1.0000
  C   C78       1.0  0.05290  0.05190  0.35750  1.0000
  C   C79       1.0  0.05290  0.44810  0.85750  1.0000
  C   C80       1.0  0.94710  0.94810  0.64250  1.0000
  C   C81       1.0  0.04080  0.55730  0.46870  1.0000
  C   C82       1.0  0.95920  0.05730  0.03130  1.0000
  C   C83       1.0  0.95920  0.44270  0.53130  1.0000
  C   C84       1.0  0.04080  0.94270  0.96870  1.0000
  H   H41       1.0  0.06770  0.59590  0.44860  1.0000
  H   H42       1.0  0.93230  0.09590  0.05140  1.0000
  H   H43       1.0  0.93230  0.40410  0.55140  1.0000
  H   H44       1.0  0.06770  0.90410  0.94860  1.0000
  C   C85       1.0  0.93820  0.51610  0.43130  1.0000
  C   C86       1.0  0.06180  0.01610  0.06870  1.0000
  C   C87       1.0  0.06180  0.48390  0.56870  1.0000
  C   C88       1.0  0.93820  0.98390  0.93130  1.0000
  C   C89       1.0  0.89670  0.45980  0.46290  1.0000
  C   C90       1.0  0.10330  0.95980  0.03710  1.0000
  C   C91       1.0  0.10330  0.54020  0.53710  1.0000
  C   C92       1.0  0.89670  0.04020  0.96290  1.0000
  H   H45       1.0  0.82590  0.43270  0.43830  1.0000
  H   H46       1.0  0.17410  0.93270  0.06170  1.0000
  H   H47       1.0  0.17410  0.56730  0.56170  1.0000
  H   H48       1.0  0.82590  0.06730  0.93830  1.0000
  C   C93       1.0  0.85970  0.53370  0.36120  1.0000
  C   C94       1.0  0.14030  0.03370  0.13880  1.0000
  C   C95       1.0  0.14030  0.46630  0.63880  1.0000
  C   C96       1.0  0.85970  0.96630  0.86120  1.0000
