data_image0
_chemical_formula_structural       Sm4O20C20H4C4O4H4C4H4C4H4C4H4O8C4H4C12H4C8H4C4H4Cl4
_chemical_formula_sum              "Sm4 O32 C64 H36 Cl4"
_cell_length_a       13.0196
_cell_length_b       13.1488
_cell_length_c       14.0444
_cell_angle_alpha    90
_cell_angle_beta     103.955
_cell_angle_gamma    90

_space_group_name_H-M_alt    "P 1"
_space_group_IT_number       1

loop_
  _space_group_symop_operation_xyz
  'x, y, z'

loop_
  _atom_site_type_symbol
  _atom_site_label
  _atom_site_symmetry_multiplicity
  _atom_site_fract_x
  _atom_site_fract_y
  _atom_site_fract_z
  _atom_site_occupancy
  Sm  Sm1       1.0  0.40887  0.44675  0.08817  1.0000
  Sm  Sm2       1.0  0.09113  0.94675  0.41183  1.0000
  Sm  Sm3       1.0  0.59113  0.55325  0.91183  1.0000
  Sm  Sm4       1.0  0.90887  0.05325  0.58817  1.0000
  O   O1        1.0  0.84950  0.11270  0.42330  1.0000
  O   O2        1.0  0.65050  0.61270  0.07670  1.0000
  O   O3        1.0  0.15050  0.88730  0.57670  1.0000
  O   O4        1.0  0.34950  0.38730  0.92330  1.0000
  O   O5        1.0  0.47270  0.38770  0.25640  1.0000
  O   O6        1.0  0.02730  0.88770  0.24360  1.0000
  O   O7        1.0  0.52730  0.61230  0.74360  1.0000
  O   O8        1.0  0.97270  0.11230  0.75640  1.0000
  O   O9        1.0  0.35850  0.51200  0.23990  1.0000
  O   O10       1.0  0.14150  0.01200  0.26010  1.0000
  O   O11       1.0  0.64150  0.48800  0.76010  1.0000
  O   O12       1.0  0.85850  0.98800  0.73990  1.0000
  O   O13       1.0  0.57000  0.41460  0.04040  1.0000
  O   O14       1.0  0.93000  0.91460  0.45960  1.0000
  O   O15       1.0  0.43000  0.58540  0.95960  1.0000
  O   O16       1.0  0.07000  0.08540  0.54040  1.0000
  O   O17       1.0  0.44120  0.25120  0.08620  1.0000
  O   O18       1.0  0.05880  0.75120  0.41380  1.0000
  O   O19       1.0  0.55880  0.74880  0.91380  1.0000
  O   O20       1.0  0.94120  0.24880  0.58620  1.0000
  C   C1        1.0  0.88260  0.11420  0.34640  1.0000
  C   C2        1.0  0.61740  0.61420  0.15360  1.0000
  C   C3        1.0  0.11740  0.88580  0.65360  1.0000
  C   C4        1.0  0.38260  0.38580  0.84640  1.0000
  C   C5        1.0  0.46520  0.47950  0.40030  1.0000
  C   C6        1.0  0.03480  0.97950  0.09970  1.0000
  C   C7        1.0  0.53480  0.52050  0.59970  1.0000
  C   C8        1.0  0.96520  0.02050  0.90030  1.0000
  C   C9        1.0  0.39250  0.17700  0.04780  1.0000
  C   C10       1.0  0.10750  0.67700  0.45220  1.0000
  C   C11       1.0  0.60750  0.82300  0.95220  1.0000
  C   C12       1.0  0.89250  0.32300  0.54780  1.0000
  C   C13       1.0  0.71380  0.30730  0.11570  1.0000
  C   C14       1.0  0.78620  0.80730  0.38430  1.0000
  C   C15       1.0  0.28620  0.69270  0.88430  1.0000
  C   C16       1.0  0.21380  0.19270  0.61570  1.0000
  C   C17       1.0  0.79320  0.24330  0.09970  1.0000
  C   C18       1.0  0.70680  0.74330  0.40030  1.0000
  C   C19       1.0  0.20680  0.75670  0.90030  1.0000
  C   C20       1.0  0.29320  0.25670  0.59970  1.0000
  H   H1        1.0  0.81100  0.24420  0.03940  1.0000
  H   H2        1.0  0.68900  0.74420  0.46060  1.0000
  H   H3        1.0  0.18900  0.75580  0.96060  1.0000
  H   H4        1.0  0.31100  0.25580  0.53940  1.0000
  C   C21       1.0  0.42910  0.45790  0.29190  1.0000
  C   C22       1.0  0.07090  0.95790  0.20810  1.0000
  C   C23       1.0  0.57090  0.54210  0.70810  1.0000
  C   C24       1.0  0.92910  0.04210  0.79190  1.0000
  O   O21       1.0  0.29010  0.17010  0.02350  1.0000
  O   O22       1.0  0.20990  0.67010  0.47650  1.0000
  O   O23       1.0  0.70990  0.82990  0.97650  1.0000
  O   O24       1.0  0.79010  0.32990  0.52350  1.0000
  H   H5        1.0  0.26420  0.22300  0.03800  1.0000
  H   H6        1.0  0.23580  0.72300  0.46200  1.0000
  H   H7        1.0  0.73580  0.77700  0.96200  1.0000
  H   H8        1.0  0.76420  0.27700  0.53800  1.0000
  C   C25       1.0  0.84550  0.17830  0.17290  1.0000
  C   C26       1.0  0.65450  0.67830  0.32710  1.0000
  C   C27       1.0  0.15450  0.82170  0.82710  1.0000
  C   C28       1.0  0.34550  0.32170  0.67290  1.0000
  H   H9        1.0  0.89700  0.13420  0.16120  1.0000
  H   H10       1.0  0.60300  0.63420  0.33880  1.0000
  H   H11       1.0  0.10300  0.86580  0.83880  1.0000
  H   H12       1.0  0.39700  0.36580  0.66120  1.0000
  C   C29       1.0  0.54500  0.42170  0.45880  1.0000
  C   C30       1.0  0.95500  0.92170  0.04120  1.0000
  C   C31       1.0  0.45500  0.57830  0.54120  1.0000
  C   C32       1.0  0.04500  0.07830  0.95880  1.0000
  H   H13       1.0  0.57530  0.36850  0.43150  1.0000
  H   H14       1.0  0.92470  0.86850  0.06850  1.0000
  H   H15       1.0  0.42470  0.63150  0.56850  1.0000
  H   H16       1.0  0.07530  0.13150  0.93150  1.0000
  C   C33       1.0  0.42020  0.55690  0.44210  1.0000
  C   C34       1.0  0.07980  0.05690  0.05790  1.0000
  C   C35       1.0  0.57980  0.44310  0.55790  1.0000
  C   C36       1.0  0.92020  0.94310  0.94210  1.0000
  H   H17       1.0  0.36580  0.59520  0.40350  1.0000
  H   H18       1.0  0.13420  0.09520  0.09650  1.0000
  H   H19       1.0  0.63420  0.40480  0.59650  1.0000
  H   H20       1.0  0.86580  0.90480  0.90350  1.0000
  O   O25       1.0  0.96200  0.06950  0.33230  1.0000
  O   O26       1.0  0.53800  0.56950  0.16770  1.0000
  O   O27       1.0  0.03800  0.93050  0.66770  1.0000
  O   O28       1.0  0.46200  0.43050  0.83230  1.0000
  O   O29       1.0  0.70410  0.40640  0.97310  1.0000
  O   O30       1.0  0.79590  0.90640  0.52690  1.0000
  O   O31       1.0  0.29590  0.59360  0.02690  1.0000
  O   O32       1.0  0.20410  0.09360  0.47310  1.0000
  C   C37       1.0  0.74250  0.24230  0.27970  1.0000
  C   C38       1.0  0.75750  0.74230  0.22030  1.0000
  C   C39       1.0  0.25750  0.75770  0.72030  1.0000
  C   C40       1.0  0.24250  0.25770  0.77970  1.0000
  H   H21       1.0  0.72540  0.24190  0.34030  1.0000
  H   H22       1.0  0.77460  0.74190  0.15970  1.0000
  H   H23       1.0  0.27460  0.75810  0.65970  1.0000
  H   H24       1.0  0.22540  0.25810  0.84030  1.0000
  C   C41       1.0  0.82110  0.17890  0.26410  1.0000
  C   C42       1.0  0.67890  0.67890  0.23590  1.0000
  C   C43       1.0  0.17890  0.82110  0.73590  1.0000
  C   C44       1.0  0.32110  0.32110  0.76410  1.0000
  C   C45       1.0  0.65920  0.37930  0.03800  1.0000
  C   C46       1.0  0.84080  0.87930  0.46200  1.0000
  C   C47       1.0  0.34080  0.62070  0.96200  1.0000
  C   C48       1.0  0.15920  0.12070  0.53800  1.0000
  C   C49       1.0  0.68820  0.30710  0.20580  1.0000
  C   C50       1.0  0.81180  0.80710  0.29420  1.0000
  C   C51       1.0  0.31180  0.69290  0.79420  1.0000
  C   C52       1.0  0.18820  0.19290  0.70580  1.0000
  H   H25       1.0  0.63530  0.34970  0.21700  1.0000
  H   H26       1.0  0.86470  0.84970  0.28300  1.0000
  H   H27       1.0  0.36470  0.65030  0.78300  1.0000
  H   H28       1.0  0.13530  0.15030  0.71700  1.0000
  C   C53       1.0  0.44790  0.08400  0.02360  1.0000
  C   C54       1.0  0.05210  0.58400  0.47640  1.0000
  C   C55       1.0  0.55210  0.91600  0.97640  1.0000
  C   C56       1.0  0.94790  0.41600  0.52360  1.0000
  C   C57       1.0  0.55620  0.07440  0.05970  1.0000
  C   C58       1.0  0.94380  0.57440  0.44030  1.0000
  C   C59       1.0  0.44380  0.92560  0.94030  1.0000
  C   C60       1.0  0.05620  0.42560  0.55970  1.0000
  H   H29       1.0  0.59380  0.12500  0.09970  1.0000
  H   H30       1.0  0.90620  0.62500  0.40030  1.0000
  H   H31       1.0  0.40620  0.87500  0.90030  1.0000
  H   H32       1.0  0.09380  0.37500  0.59970  1.0000
  C   C61       1.0  0.39160  0.00960  0.96320  1.0000
  C   C62       1.0  0.10840  0.50960  0.53680  1.0000
  C   C63       1.0  0.60840  0.99040  0.03680  1.0000
  C   C64       1.0  0.89160  0.49040  0.46320  1.0000
  H   H33       1.0  0.31890  0.01630  0.93840  1.0000
  H   H34       1.0  0.18110  0.51630  0.56160  1.0000
  H   H35       1.0  0.68110  0.98370  0.06160  1.0000
  H   H36       1.0  0.81890  0.48370  0.43840  1.0000
  Cl  Cl1       1.0  0.19673  0.36139  0.07667  1.0000
  Cl  Cl2       1.0  0.30327  0.86139  0.42333  1.0000
  Cl  Cl3       1.0  0.80327  0.63861  0.92333  1.0000
  Cl  Cl4       1.0  0.69673  0.13861  0.57667  1.0000
