data_image0
_chemical_formula_structural       Co2O8N12C2H2C2H2C8H4C4H2C2H2C2H2C4H4C4H2C2H2
_chemical_formula_sum              "Co2 O8 N12 C30 H22"
_cell_length_a       9.3717
_cell_length_b       10.1843
_cell_length_c       11.7377
_cell_angle_alpha    112.956
_cell_angle_beta     108.358
_cell_angle_gamma    90.696

_space_group_name_H-M_alt    "P 1"
_space_group_IT_number       1

loop_
  _space_group_symop_operation_xyz
  'x, y, z'

loop_
  _atom_site_type_symbol
  _atom_site_label
  _atom_site_symmetry_multiplicity
  _atom_site_fract_x
  _atom_site_fract_y
  _atom_site_fract_z
  _atom_site_occupancy
  Co  Co1       1.0  0.83127  0.32521  0.36168  1.0000
  Co  Co2       1.0  0.16873  0.67479  0.63832  1.0000
  O   O1        1.0  0.65533  0.44365  0.33507  1.0000
  O   O2        1.0  0.34467  0.55635  0.66493  1.0000
  O   O3        1.0  0.56830  0.25140  0.34320  1.0000
  O   O4        1.0  0.43170  0.74860  0.65680  1.0000
  O   O5        1.0  0.16357  0.88553  0.67465  1.0000
  O   O6        1.0  0.83643  0.11447  0.32535  1.0000
  O   O7        1.0  0.92410  0.84176  0.65073  1.0000
  O   O8        1.0  0.07590  0.15824  0.34927  1.0000
  N   N1        1.0  0.77850  0.25940  0.14742  1.0000
  N   N2        1.0  0.22150  0.74060  0.85258  1.0000
  N   N3        1.0  0.98130  0.47294  0.35245  1.0000
  N   N4        1.0  0.01870  0.52706  0.64755  1.0000
  N   N5        1.0  0.08920  0.58818  0.43279  1.0000
  N   N6        1.0  0.91080  0.41182  0.56721  1.0000
  N   N7        1.0  0.12960  0.64460  0.36195  1.0000
  N   N8        1.0  0.87040  0.35540  0.63805  1.0000
  N   N9        1.0  0.04940  0.56850  0.23375  1.0000
  N   N10       1.0  0.95060  0.43150  0.76625  1.0000
  N   N11       1.0  0.70160  0.23270  0.89060  1.0000
  N   N12       1.0  0.29840  0.76730  0.10940  1.0000
  C   C1        1.0  0.67410  0.15220  0.04710  1.0000
  C   C2        1.0  0.32590  0.84780  0.95290  1.0000
  H   H1        1.0  0.62620  0.08460  0.06370  1.0000
  H   H2        1.0  0.37380  0.91540  0.93630  1.0000
  C   C3        1.0  0.63580  0.13960  0.91960  1.0000
  C   C4        1.0  0.36420  0.86040  0.08040  1.0000
  H   H3        1.0  0.56200  0.06400  0.85210  1.0000
  H   H4        1.0  0.43800  0.93600  0.14790  1.0000
  C   C5        1.0  0.84590  0.35120  0.11800  1.0000
  C   C6        1.0  0.15410  0.64880  0.88200  1.0000
  C   C7        1.0  0.96020  0.46490  0.23200  1.0000
  C   C8        1.0  0.03980  0.53510  0.76800  1.0000
  C   C9        1.0  0.54630  0.36420  0.32820  1.0000
  C   C10       1.0  0.45370  0.63580  0.67180  1.0000
  C   C11       1.0  0.38830  0.40440  0.29390  1.0000
  C   C12       1.0  0.61170  0.59560  0.70610  1.0000
  H   H5        1.0  0.39550  0.50710  0.31580  1.0000
  H   H6        1.0  0.60450  0.49290  0.68420  1.0000
  H   H7        1.0  0.33520  0.38330  0.34500  1.0000
  H   H8        1.0  0.66480  0.61670  0.65500  1.0000
  C   C13       1.0  0.30010  0.32010  0.14790  1.0000
  C   C14       1.0  0.69990  0.67990  0.85210  1.0000
  C   C15       1.0  0.33650  0.34780  0.05370  1.0000
  C   C16       1.0  0.66350  0.65220  0.94630  1.0000
  H   H9        1.0  0.41810  0.41880  0.08020  1.0000
  H   H10       1.0  0.58190  0.58120  0.91980  1.0000
  C   C17       1.0  0.17840  0.21360  0.10430  1.0000
  C   C18       1.0  0.82160  0.78640  0.89570  1.0000
  H   H11       1.0  0.15130  0.19160  0.16520  1.0000
  H   H12       1.0  0.84870  0.80840  0.83480  1.0000
  C   C19       1.0  0.09650  0.13920  0.97110  1.0000
  C   C20       1.0  0.90350  0.86080  0.02890  1.0000
  H   H13       1.0  0.01500  0.06800  0.94440  1.0000
  H   H14       1.0  0.98500  0.93200  0.05560  1.0000
  C   C21       1.0  0.03970  0.92780  0.68210  1.0000
  C   C22       1.0  0.96030  0.07220  0.31790  1.0000
  C   C23       1.0  0.03560  0.08820  0.73240  1.0000
  C   C24       1.0  0.96440  0.91180  0.26760  1.0000
  H   H15       1.0  0.93130  0.10500  0.72020  1.0000
  H   H16       1.0  0.06870  0.89500  0.27980  1.0000
  H   H17       1.0  0.07240  0.12650  0.68120  1.0000
  H   H18       1.0  0.92760  0.87350  0.31880  1.0000
  C   C25       1.0  0.13220  0.16760  0.87720  1.0000
  C   C26       1.0  0.86780  0.83240  0.12280  1.0000
  C   C27       1.0  0.25460  0.27240  0.92040  1.0000
  C   C28       1.0  0.74540  0.72760  0.07960  1.0000
  H   H19       1.0  0.28270  0.29300  0.85920  1.0000
  H   H20       1.0  0.71730  0.70700  0.14080  1.0000
  C   C29       1.0  0.80890  0.33770  0.98940  1.0000
  C   C30       1.0  0.19110  0.66230  0.01060  1.0000
  H   H21       1.0  0.85960  0.40270  0.97210  1.0000
  H   H22       1.0  0.14040  0.59730  0.02790  1.0000
