data_image0
_chemical_formula_structural       C6H2C6H2C4H2C4H2C6H2C4H2C8H2C6H2C4H2C4H2C4H2C4H2C12Co8N8H4N2H4N8H4N2H4O34H4
_chemical_formula_sum              "C72 H44 Co8 N20 O34"
_cell_length_a       8.097
_cell_length_b       21.414
_cell_length_c       14.114
_cell_angle_alpha    90
_cell_angle_beta     105.123
_cell_angle_gamma    90

_space_group_name_H-M_alt    "P 1"
_space_group_IT_number       1

loop_
  _space_group_symop_operation_xyz
  'x, y, z'

loop_
  _atom_site_type_symbol
  _atom_site_label
  _atom_site_symmetry_multiplicity
  _atom_site_fract_x
  _atom_site_fract_y
  _atom_site_fract_z
  _atom_site_occupancy
  C   C1        1.0  0.66200  0.94870  0.68600  1.0000
  C   C2        1.0  0.66200  0.05130  0.18600  1.0000
  C   C3        1.0  0.54300  0.99750  0.63100  1.0000
  C   C4        1.0  0.54300  0.00250  0.13100  1.0000
  C   C5        1.0  0.53500  0.05700  0.66400  1.0000
  C   C6        1.0  0.53500  0.94300  0.16400  1.0000
  H   H1        1.0  0.60444  0.06757  0.72534  1.0000
  H   H2        1.0  0.60444  0.93243  0.22534  1.0000
  C   C7        1.0  0.42800  0.10280  0.61100  1.0000
  C   C8        1.0  0.42800  0.89720  0.11100  1.0000
  C   C9        1.0  0.41300  0.16740  0.64400  1.0000
  C   C10       1.0  0.41300  0.83260  0.14400  1.0000
  C   C11       1.0  0.33100  0.08710  0.51700  1.0000
  C   C12       1.0  0.33100  0.91290  0.01700  1.0000
  H   H3        1.0  0.25884  0.11659  0.47877  1.0000
  H   H4        1.0  0.25884  0.88341  0.97877  1.0000
  C   C13       1.0  0.34100  0.02730  0.47990  1.0000
  C   C14       1.0  0.34100  0.97270  0.97990  1.0000
  C   C15       1.0  0.44100  0.98340  0.53210  1.0000
  C   C16       1.0  0.44100  0.01660  0.03210  1.0000
  H   H5        1.0  0.44635  0.94394  0.50556  1.0000
  H   H6        1.0  0.44635  0.05606  0.00556  1.0000
  C   C17       1.0  0.23800  0.01260  0.37650  1.0000
  C   C18       1.0  0.23800  0.98740  0.87650  1.0000
  C   C19       1.0  0.19500  0.05710  0.30400  1.0000
  C   C20       1.0  0.19500  0.94290  0.80400  1.0000
  H   H7        1.0  0.21766  0.09898  0.31964  1.0000
  H   H8        1.0  0.21766  0.90102  0.81964  1.0000
  C   C21       1.0  0.11400  0.03990  0.20600  1.0000
  C   C22       1.0  0.11400  0.96010  0.70600  1.0000
  C   C23       1.0  0.08600  0.09220  0.13300  1.0000
  C   C24       1.0  0.08600  0.90780  0.63300  1.0000
  C   C25       1.0  0.06200  0.97850  0.18460  1.0000
  C   C26       1.0  0.06200  0.02150  0.68460  1.0000
  H   H9        1.0  0.00550  0.96803  0.12033  1.0000
  H   H10       1.0  0.00550  0.03197  0.62033  1.0000
  C   C27       1.0  0.09000  0.93370  0.25380  1.0000
  C   C28       1.0  0.09000  0.06630  0.75380  1.0000
  C   C29       1.0  0.17500  0.94950  0.35400  1.0000
  C   C30       1.0  0.17500  0.05050  0.85400  1.0000
  H   H11       1.0  0.18962  0.91964  0.40343  1.0000
  H   H12       1.0  0.18962  0.08036  0.90343  1.0000
  C   C31       1.0  0.03500  0.86890  0.23250  1.0000
  C   C32       1.0  0.03500  0.13110  0.73250  1.0000
  C   C33       1.0  0.89700  0.54240  0.70500  1.0000
  C   C34       1.0  0.89700  0.45760  0.20500  1.0000
  C   C35       1.0  0.02000  0.49230  0.76080  1.0000
  C   C36       1.0  0.02000  0.50770  0.26080  1.0000
  C   C37       1.0  0.03100  0.43430  0.71700  1.0000
  C   C38       1.0  0.03100  0.56570  0.21700  1.0000
  H   H13       1.0  0.96512  0.42502  0.65459  1.0000
  H   H14       1.0  0.96512  0.57498  0.15459  1.0000
  C   C39       1.0  0.14700  0.39000  0.77320  1.0000
  C   C40       1.0  0.14700  0.61000  0.27320  1.0000
  C   C41       1.0  0.15600  0.32720  0.73310  1.0000
  C   C42       1.0  0.15600  0.67280  0.23310  1.0000
  C   C43       1.0  0.24000  0.40550  0.86600  1.0000
  C   C44       1.0  0.24000  0.59450  0.36600  1.0000
  H   H15       1.0  0.31353  0.37586  0.90278  1.0000
  H   H16       1.0  0.31353  0.62414  0.40278  1.0000
  C   C45       1.0  0.22800  0.46310  0.90920  1.0000
  C   C46       1.0  0.22800  0.53690  0.40920  1.0000
  C   C47       1.0  0.11500  0.50520  0.85000  1.0000
  C   C48       1.0  0.11500  0.49480  0.35000  1.0000
  H   H17       1.0  0.10591  0.54487  0.87496  1.0000
  H   H18       1.0  0.10591  0.45513  0.37496  1.0000
  C   C49       1.0  0.31900  0.47620  0.01430  1.0000
  C   C50       1.0  0.31900  0.52380  0.51430  1.0000
  C   C51       1.0  0.35800  0.53780  0.04220  1.0000
  C   C52       1.0  0.35800  0.46220  0.54220  1.0000
  H   H19       1.0  0.33214  0.56951  0.99567  1.0000
  H   H20       1.0  0.33214  0.43049  0.49567  1.0000
  C   C53       1.0  0.43700  0.55200  0.13960  1.0000
  C   C54       1.0  0.43700  0.44800  0.63960  1.0000
  C   C55       1.0  0.47600  0.50460  0.20920  1.0000
  C   C56       1.0  0.47600  0.49540  0.70920  1.0000
  H   H21       1.0  0.52867  0.51414  0.27440  1.0000
  H   H22       1.0  0.52867  0.48586  0.77440  1.0000
  C   C57       1.0  0.43700  0.44300  0.18130  1.0000
  C   C58       1.0  0.43700  0.55700  0.68130  1.0000
  C   C59       1.0  0.35800  0.42880  0.08390  1.0000
  C   C60       1.0  0.35800  0.57120  0.58390  1.0000
  H   H23       1.0  0.33188  0.38755  0.06525  1.0000
  H   H24       1.0  0.33188  0.61245  0.56525  1.0000
  C   C61       1.0  0.48300  0.61640  0.17200  1.0000
  C   C62       1.0  0.48300  0.38360  0.67200  1.0000
  C   C63       1.0  0.46500  0.39160  0.25560  1.0000
  C   C64       1.0  0.46500  0.60840  0.75560  1.0000
  C   C65       1.0  0.67700  0.78280  0.46800  1.0000
  C   C66       1.0  0.67700  0.21720  0.96800  1.0000
  C   C67       1.0  0.67700  0.68420  0.48700  1.0000
  C   C68       1.0  0.67700  0.31580  0.98700  1.0000
  C   C69       1.0  0.90600  0.81070  0.89750  1.0000
  C   C70       1.0  0.90600  0.18930  0.39750  1.0000
  C   C71       1.0  0.94300  0.71180  0.90400  1.0000
  C   C72       1.0  0.94300  0.28820  0.40400  1.0000
  Co  Co1       1.0  0.83330  0.83165  0.67770  1.0000
  Co  Co2       1.0  0.83330  0.16835  0.17770  1.0000
  Co  Co3       1.0  0.75030  0.66608  0.70370  1.0000
  Co  Co4       1.0  0.75030  0.33392  0.20370  1.0000
  Co  Co5       1.0  0.09530  0.77106  0.10400  1.0000
  Co  Co6       1.0  0.09530  0.22894  0.60400  1.0000
  Co  Co7       1.0  0.53700  0.72160  0.26400  1.0000
  Co  Co8       1.0  0.53700  0.27840  0.76400  1.0000
  N   N1        1.0  0.73400  0.77130  0.56840  1.0000
  N   N2        1.0  0.73400  0.22870  0.06840  1.0000
  N   N3        1.0  0.73400  0.70600  0.57870  1.0000
  N   N4        1.0  0.73400  0.29400  0.07870  1.0000
  N   N5        1.0  0.63600  0.73120  0.41800  1.0000
  N   N6        1.0  0.63600  0.26880  0.91800  1.0000
  N   N7        1.0  0.66100  0.84180  0.43600  1.0000
  N   N8        1.0  0.66100  0.15820  0.93600  1.0000
  H   H25       1.0  0.61720  0.84967  0.37478  1.0000
  H   H26       1.0  0.61720  0.15033  0.87478  1.0000
  H   H27       1.0  0.69364  0.87196  0.47679  1.0000
  H   H28       1.0  0.69364  0.12804  0.97679  1.0000
  N   N9        1.0  0.65600  0.62440  0.46830  1.0000
  N   N10       1.0  0.65600  0.37560  0.96830  1.0000
  H   H29       1.0  0.67955  0.59787  0.51575  1.0000
  H   H30       1.0  0.67955  0.40213  0.01575  1.0000
  H   H31       1.0  0.61897  0.61154  0.40879  1.0000
  H   H32       1.0  0.61897  0.38846  0.90879  1.0000
  N   N11       1.0  0.85000  0.78930  0.80580  1.0000
  N   N12       1.0  0.85000  0.21070  0.30580  1.0000
  N   N13       1.0  0.87500  0.72510  0.80810  1.0000
  N   N14       1.0  0.87500  0.27490  0.30810  1.0000
  N   N15       1.0  0.96700  0.76400  0.96160  1.0000
  N   N16       1.0  0.96700  0.23600  0.46160  1.0000
  N   N17       1.0  0.89900  0.87090  0.92450  1.0000
  N   N18       1.0  0.89900  0.12910  0.42450  1.0000
  H   H33       1.0  0.85721  0.89878  0.88113  1.0000
  H   H34       1.0  0.85721  0.10122  0.38113  1.0000
  H   H35       1.0  0.93764  0.88136  0.98512  1.0000
  H   H36       1.0  0.93764  0.11864  0.48512  1.0000
  N   N19       1.0  0.00000  0.65530  0.94060  1.0000
  N   N20       1.0  0.00000  0.34470  0.44060  1.0000
  H   H37       1.0  0.99529  0.62398  0.90185  1.0000
  H   H38       1.0  0.99529  0.37602  0.40185  1.0000
  H   H39       1.0  0.04224  0.65064  0.00283  1.0000
  H   H40       1.0  0.04224  0.34936  0.50283  1.0000
  O   O1        1.0  0.67800  0.89990  0.63520  1.0000
  O   O2        1.0  0.67800  0.10010  0.13520  1.0000
  O   O3        1.0  0.73700  0.95740  0.77080  1.0000
  O   O4        1.0  0.73700  0.04260  0.27080  1.0000
  O   O5        1.0  0.50200  0.18340  0.73160  1.0000
  O   O6        1.0  0.50200  0.81660  0.23160  1.0000
  O   O7        1.0  0.32400  0.20620  0.58860  1.0000
  O   O8        1.0  0.32400  0.79380  0.08860  1.0000
  O   O9        1.0  0.08200  0.08060  0.04730  1.0000
  O   O10       1.0  0.08200  0.91940  0.54730  1.0000
  O   O11       1.0  0.05800  0.14750  0.15550  1.0000
  O   O12       1.0  0.05800  0.85250  0.65550  1.0000
  O   O13       1.0  0.01900  0.85240  0.14370  1.0000
  O   O14       1.0  0.01900  0.14760  0.64370  1.0000
  O   O15       1.0  0.01700  0.83280  0.29700  1.0000
  O   O16       1.0  0.01700  0.16720  0.79700  1.0000
  O   O17       1.0  0.88500  0.59120  0.74710  1.0000
  O   O18       1.0  0.88500  0.40880  0.24710  1.0000
  O   O19       1.0  0.81900  0.53370  0.61520  1.0000
  O   O20       1.0  0.81900  0.46630  0.11520  1.0000
  O   O21       1.0  0.04700  0.31160  0.65400  1.0000
  O   O22       1.0  0.04700  0.68840  0.15400  1.0000
  O   O23       1.0  0.28700  0.29160  0.77210  1.0000
  O   O24       1.0  0.28700  0.70840  0.27210  1.0000
  O   O25       1.0  0.52900  0.33960  0.23480  1.0000
  O   O26       1.0  0.52900  0.66040  0.73480  1.0000
  O   O27       1.0  0.43000  0.40140  0.33450  1.0000
  O   O28       1.0  0.43000  0.59860  0.83450  1.0000
  O   O29       1.0  0.57700  0.62580  0.26130  1.0000
  O   O30       1.0  0.57700  0.37420  0.76130  1.0000
  O   O31       1.0  0.43400  0.66160  0.11860  1.0000
  O   O32       1.0  0.43400  0.33840  0.61860  1.0000
  O   O33       1.0  0.77150  0.73680  0.23260  1.0000
  O   O34       1.0  0.77150  0.26320  0.73260  1.0000
  H   H41       1.0  0.82154  0.77528  0.21869  1.0000
  H   H42       1.0  0.82154  0.22472  0.71869  1.0000
  H   H43       1.0  0.87136  0.71112  0.24695  1.0000
  H   H44       1.0  0.87136  0.28888  0.74695  1.0000
