data_image0
_chemical_formula_structural       Co8C24H8C16H8C16H8C16N20H16O32
_chemical_formula_sum              "Co8 C72 H40 N20 O32"
_cell_length_a       16.9139
_cell_length_b       20.364
_cell_length_c       12.255
_cell_angle_alpha    90
_cell_angle_beta     124.441
_cell_angle_gamma    90

_space_group_name_H-M_alt    "P 1"
_space_group_IT_number       1

loop_
  _space_group_symop_operation_xyz
  'x, y, z'

loop_
  _atom_site_type_symbol
  _atom_site_label
  _atom_site_symmetry_multiplicity
  _atom_site_fract_x
  _atom_site_fract_y
  _atom_site_fract_z
  _atom_site_occupancy
  Co  Co1       1.0  0.08957  0.00000  0.12867  1.0000
  Co  Co2       1.0  0.91043  0.00000  0.87133  1.0000
  Co  Co3       1.0  0.58957  0.50000  0.12867  1.0000
  Co  Co4       1.0  0.41043  0.50000  0.87133  1.0000
  Co  Co5       1.0  0.50000  0.08783  0.50000  1.0000
  Co  Co6       1.0  0.00000  0.58783  0.50000  1.0000
  Co  Co7       1.0  0.50000  0.91217  0.50000  1.0000
  Co  Co8       1.0  0.00000  0.41217  0.50000  1.0000
  C   C1        1.0  0.03839  0.09673  0.89980  1.0000
  C   C2        1.0  0.96161  0.09673  0.10020  1.0000
  C   C3        1.0  0.53839  0.59673  0.89980  1.0000
  C   C4        1.0  0.46161  0.59673  0.10020  1.0000
  C   C5        1.0  0.96161  0.90327  0.10020  1.0000
  C   C6        1.0  0.03839  0.90327  0.89980  1.0000
  C   C7        1.0  0.46161  0.40327  0.10020  1.0000
  C   C8        1.0  0.53839  0.40327  0.89980  1.0000
  C   C9        1.0  0.07183  0.15910  0.87330  1.0000
  C   C10       1.0  0.92817  0.15910  0.12670  1.0000
  C   C11       1.0  0.57183  0.65910  0.87330  1.0000
  C   C12       1.0  0.42817  0.65910  0.12670  1.0000
  C   C13       1.0  0.92817  0.84090  0.12670  1.0000
  C   C14       1.0  0.07183  0.84090  0.87330  1.0000
  C   C15       1.0  0.42817  0.34090  0.12670  1.0000
  C   C16       1.0  0.57183  0.34090  0.87330  1.0000
  C   C17       1.0  0.16480  0.18020  0.96700  1.0000
  C   C18       1.0  0.83520  0.18020  0.03300  1.0000
  C   C19       1.0  0.66480  0.68020  0.96700  1.0000
  C   C20       1.0  0.33520  0.68020  0.03300  1.0000
  C   C21       1.0  0.83520  0.81980  0.03300  1.0000
  C   C22       1.0  0.16480  0.81980  0.96700  1.0000
  C   C23       1.0  0.33520  0.31980  0.03300  1.0000
  C   C24       1.0  0.66480  0.31980  0.96700  1.0000
  H   H1        1.0  0.20433  0.15486  0.04214  1.0000
  H   H2        1.0  0.79567  0.15486  0.95786  1.0000
  H   H3        1.0  0.70433  0.65486  0.04214  1.0000
  H   H4        1.0  0.29567  0.65486  0.95786  1.0000
  H   H5        1.0  0.79567  0.84514  0.95786  1.0000
  H   H6        1.0  0.20433  0.84514  0.04214  1.0000
  H   H7        1.0  0.29567  0.34514  0.95786  1.0000
  H   H8        1.0  0.70433  0.34514  0.04214  1.0000
  C   C25       1.0  0.20011  0.23890  0.95040  1.0000
  C   C26       1.0  0.79989  0.23890  0.04960  1.0000
  C   C27       1.0  0.70011  0.73890  0.95040  1.0000
  C   C28       1.0  0.29989  0.73890  0.04960  1.0000
  C   C29       1.0  0.79989  0.76110  0.04960  1.0000
  C   C30       1.0  0.20011  0.76110  0.95040  1.0000
  C   C31       1.0  0.29989  0.26110  0.04960  1.0000
  C   C32       1.0  0.70011  0.26110  0.95040  1.0000
  C   C33       1.0  0.13712  0.27554  0.83750  1.0000
  C   C34       1.0  0.86288  0.27554  0.16250  1.0000
  C   C35       1.0  0.63712  0.77554  0.83750  1.0000
  C   C36       1.0  0.36288  0.77554  0.16250  1.0000
  C   C37       1.0  0.86288  0.72446  0.16250  1.0000
  C   C38       1.0  0.13712  0.72446  0.83750  1.0000
  C   C39       1.0  0.36288  0.22446  0.16250  1.0000
  C   C40       1.0  0.63712  0.22446  0.83750  1.0000
  H   H9        1.0  0.15828  0.31503  0.82449  1.0000
  H   H10       1.0  0.84172  0.31503  0.17551  1.0000
  H   H11       1.0  0.65828  0.81503  0.82449  1.0000
  H   H12       1.0  0.34172  0.81503  0.17551  1.0000
  H   H13       1.0  0.84172  0.68497  0.17551  1.0000
  H   H14       1.0  0.15828  0.68497  0.82449  1.0000
  H   H15       1.0  0.34172  0.18497  0.17551  1.0000
  H   H16       1.0  0.65828  0.18497  0.82449  1.0000
  C   C41       1.0  0.04383  0.25530  0.74360  1.0000
  C   C42       1.0  0.95617  0.25530  0.25640  1.0000
  C   C43       1.0  0.54383  0.75530  0.74360  1.0000
  C   C44       1.0  0.45617  0.75530  0.25640  1.0000
  C   C45       1.0  0.95617  0.74470  0.25640  1.0000
  C   C46       1.0  0.04383  0.74470  0.74360  1.0000
  C   C47       1.0  0.45617  0.24470  0.25640  1.0000
  C   C48       1.0  0.54383  0.24470  0.74360  1.0000
  C   C49       1.0  0.01118  0.19636  0.76100  1.0000
  C   C50       1.0  0.98882  0.19636  0.23900  1.0000
  C   C51       1.0  0.51118  0.69636  0.76100  1.0000
  C   C52       1.0  0.48882  0.69636  0.23900  1.0000
  C   C53       1.0  0.98882  0.80364  0.23900  1.0000
  C   C54       1.0  0.01118  0.80364  0.76100  1.0000
  C   C55       1.0  0.48882  0.30364  0.23900  1.0000
  C   C56       1.0  0.51118  0.30364  0.76100  1.0000
  H   H17       1.0  0.94923  0.18196  0.69802  1.0000
  H   H18       1.0  0.05077  0.18196  0.30198  1.0000
  H   H19       1.0  0.44923  0.68196  0.69802  1.0000
  H   H20       1.0  0.55077  0.68196  0.30198  1.0000
  H   H21       1.0  0.05077  0.81804  0.30198  1.0000
  H   H22       1.0  0.94923  0.81804  0.69802  1.0000
  H   H23       1.0  0.55077  0.31804  0.30198  1.0000
  H   H24       1.0  0.44923  0.31804  0.69802  1.0000
  C   C57       1.0  0.98092  0.29900  0.62610  1.0000
  C   C58       1.0  0.01908  0.29900  0.37390  1.0000
  C   C59       1.0  0.48092  0.79900  0.62610  1.0000
  C   C60       1.0  0.51908  0.79900  0.37390  1.0000
  C   C61       1.0  0.01908  0.70100  0.37390  1.0000
  C   C62       1.0  0.98092  0.70100  0.62610  1.0000
  C   C63       1.0  0.51908  0.20100  0.37390  1.0000
  C   C64       1.0  0.48092  0.20100  0.62610  1.0000
  C   C65       1.0  0.29138  0.05206  0.33280  1.0000
  C   C66       1.0  0.70862  0.05206  0.66720  1.0000
  C   C67       1.0  0.79138  0.55206  0.33280  1.0000
  C   C68       1.0  0.20862  0.55206  0.66720  1.0000
  C   C69       1.0  0.70862  0.94794  0.66720  1.0000
  C   C70       1.0  0.29138  0.94794  0.33280  1.0000
  C   C71       1.0  0.20862  0.44794  0.66720  1.0000
  C   C72       1.0  0.79138  0.44794  0.33280  1.0000
  N   N1        1.0  0.23104  0.00000  0.27800  1.0000
  N   N2        1.0  0.76896  0.00000  0.72200  1.0000
  N   N3        1.0  0.73104  0.50000  0.27800  1.0000
  N   N4        1.0  0.26896  0.50000  0.72200  1.0000
  N   N5        1.0  0.38181  0.03458  0.41218  1.0000
  N   N6        1.0  0.61819  0.03458  0.58782  1.0000
  N   N7        1.0  0.88181  0.53458  0.41218  1.0000
  N   N8        1.0  0.11819  0.53458  0.58782  1.0000
  N   N9        1.0  0.61819  0.96542  0.58782  1.0000
  N   N10       1.0  0.38181  0.96542  0.41218  1.0000
  N   N11       1.0  0.11819  0.46542  0.58782  1.0000
  N   N12       1.0  0.88181  0.46542  0.41218  1.0000
  N   N13       1.0  0.26101  0.11584  0.30564  1.0000
  N   N14       1.0  0.73899  0.11584  0.69436  1.0000
  N   N15       1.0  0.76101  0.61584  0.30564  1.0000
  N   N16       1.0  0.23899  0.61584  0.69436  1.0000
  N   N17       1.0  0.73899  0.88416  0.69436  1.0000
  N   N18       1.0  0.26101  0.88416  0.30564  1.0000
  N   N19       1.0  0.23899  0.38416  0.69436  1.0000
  N   N20       1.0  0.76101  0.38416  0.30564  1.0000
  H   H25       1.0  0.30202  0.14730  0.34130  1.0000
  H   H26       1.0  0.69798  0.14730  0.65870  1.0000
  H   H27       1.0  0.80202  0.64730  0.34130  1.0000
  H   H28       1.0  0.19798  0.64730  0.65870  1.0000
  H   H29       1.0  0.69798  0.85270  0.65870  1.0000
  H   H30       1.0  0.30202  0.85270  0.34130  1.0000
  H   H31       1.0  0.19798  0.35270  0.65870  1.0000
  H   H32       1.0  0.80202  0.35270  0.34130  1.0000
  H   H33       1.0  0.20089  0.12452  0.25288  1.0000
  H   H34       1.0  0.79911  0.12452  0.74712  1.0000
  H   H35       1.0  0.70089  0.62452  0.25288  1.0000
  H   H36       1.0  0.29911  0.62452  0.74712  1.0000
  H   H37       1.0  0.79911  0.87548  0.74712  1.0000
  H   H38       1.0  0.20089  0.87548  0.25288  1.0000
  H   H39       1.0  0.29911  0.37548  0.74712  1.0000
  H   H40       1.0  0.70089  0.37548  0.25288  1.0000
  O   O1        1.0  0.09517  0.06846  0.00813  1.0000
  O   O2        1.0  0.90483  0.06846  0.99187  1.0000
  O   O3        1.0  0.59517  0.56846  0.00813  1.0000
  O   O4        1.0  0.40483  0.56846  0.99187  1.0000
  O   O5        1.0  0.90483  0.93154  0.99187  1.0000
  O   O6        1.0  0.09517  0.93154  0.00813  1.0000
  O   O7        1.0  0.40483  0.43154  0.99187  1.0000
  O   O8        1.0  0.59517  0.43154  0.00813  1.0000
  O   O9        1.0  0.95502  0.07607  0.81248  1.0000
  O   O10       1.0  0.04498  0.07607  0.18752  1.0000
  O   O11       1.0  0.45502  0.57607  0.81248  1.0000
  O   O12       1.0  0.54498  0.57607  0.18752  1.0000
  O   O13       1.0  0.04498  0.92393  0.18752  1.0000
  O   O14       1.0  0.95502  0.92393  0.81248  1.0000
  O   O15       1.0  0.54498  0.42393  0.18752  1.0000
  O   O16       1.0  0.45502  0.42393  0.81248  1.0000
  O   O17       1.0  0.01631  0.35618  0.63776  1.0000
  O   O18       1.0  0.98369  0.35618  0.36224  1.0000
  O   O19       1.0  0.51631  0.85618  0.63776  1.0000
  O   O20       1.0  0.48369  0.85618  0.36224  1.0000
  O   O21       1.0  0.98369  0.64382  0.36224  1.0000
  O   O22       1.0  0.01631  0.64382  0.63776  1.0000
  O   O23       1.0  0.48369  0.14382  0.36224  1.0000
  O   O24       1.0  0.51631  0.14382  0.63776  1.0000
  O   O25       1.0  0.90275  0.28032  0.53091  1.0000
  O   O26       1.0  0.09725  0.28032  0.46909  1.0000
  O   O27       1.0  0.40275  0.78032  0.53091  1.0000
  O   O28       1.0  0.59725  0.78032  0.46909  1.0000
  O   O29       1.0  0.09725  0.71968  0.46909  1.0000
  O   O30       1.0  0.90275  0.71968  0.53091  1.0000
  O   O31       1.0  0.59725  0.21968  0.46909  1.0000
  O   O32       1.0  0.40275  0.21968  0.53091  1.0000
