data_image0
_chemical_formula_structural       C8H4C8H4C8H4C12H4C8H4C8H4C24H4C8H4C8H4C12H4C8H4C8H4C16In8N4H4N4H4O72
_chemical_formula_sum              "C136 H56 In8 N8 O72"
_cell_length_a       9.957
_cell_length_b       24.444
_cell_length_c       35.537
_cell_angle_alpha    90
_cell_angle_beta     90.337
_cell_angle_gamma    90

_space_group_name_H-M_alt    "P 1"
_space_group_IT_number       1

loop_
  _space_group_symop_operation_xyz
  'x, y, z'

loop_
  _atom_site_type_symbol
  _atom_site_label
  _atom_site_symmetry_multiplicity
  _atom_site_fract_x
  _atom_site_fract_y
  _atom_site_fract_z
  _atom_site_occupancy
  C   C1        1.0  0.03660  0.25359  0.36709  1.0000
  C   C2        1.0  0.96340  0.75359  0.13291  1.0000
  C   C3        1.0  0.96340  0.74641  0.63291  1.0000
  C   C4        1.0  0.03660  0.24641  0.86709  1.0000
  C   C5        1.0  0.05600  0.24920  0.40579  1.0000
  C   C6        1.0  0.94400  0.74920  0.09421  1.0000
  C   C7        1.0  0.94400  0.75080  0.59421  1.0000
  C   C8        1.0  0.05600  0.25080  0.90579  1.0000
  H   H1        1.0  0.07952  0.21574  0.41638  1.0000
  H   H2        1.0  0.92048  0.71574  0.08362  1.0000
  H   H3        1.0  0.92048  0.78426  0.58362  1.0000
  H   H4        1.0  0.07952  0.28426  0.91638  1.0000
  C   C9        1.0  0.03990  0.29537  0.42879  1.0000
  C   C10       1.0  0.96010  0.79537  0.07121  1.0000
  C   C11       1.0  0.96010  0.70463  0.57121  1.0000
  C   C12       1.0  0.03990  0.20463  0.92879  1.0000
  C   C13       1.0  0.00510  0.34480  0.41212  1.0000
  C   C14       1.0  0.99490  0.84480  0.08788  1.0000
  C   C15       1.0  0.99490  0.65520  0.58788  1.0000
  C   C16       1.0  0.00510  0.15520  0.91212  1.0000
  H   H5        1.0  0.99417  0.37569  0.42707  1.0000
  H   H6        1.0  0.00583  0.87569  0.07293  1.0000
  H   H7        1.0  0.00583  0.62431  0.57293  1.0000
  H   H8        1.0  0.99417  0.12431  0.92707  1.0000
  C   C17       1.0  0.98630  0.34885  0.37343  1.0000
  C   C18       1.0  0.01370  0.84885  0.12657  1.0000
  C   C19       1.0  0.01370  0.65115  0.62657  1.0000
  C   C20       1.0  0.98630  0.15115  0.87343  1.0000
  C   C21       1.0  0.00240  0.30273  0.35138  1.0000
  C   C22       1.0  0.99760  0.80273  0.14862  1.0000
  C   C23       1.0  0.99760  0.69727  0.64862  1.0000
  C   C24       1.0  0.00240  0.19727  0.85138  1.0000
  H   H9        1.0  0.98991  0.30519  0.32548  1.0000
  H   H10       1.0  0.01009  0.80519  0.17452  1.0000
  H   H11       1.0  0.01009  0.69481  0.67452  1.0000
  H   H12       1.0  0.98991  0.19481  0.82548  1.0000
  C   C25       1.0  0.94800  0.39942  0.35404  1.0000
  C   C26       1.0  0.05200  0.89942  0.14596  1.0000
  C   C27       1.0  0.05200  0.60058  0.64596  1.0000
  C   C28       1.0  0.94800  0.10058  0.85404  1.0000
  C   C29       1.0  0.00930  0.50034  0.35536  1.0000
  C   C30       1.0  0.99070  0.00034  0.14464  1.0000
  C   C31       1.0  0.99070  0.49966  0.64464  1.0000
  C   C32       1.0  0.00930  0.99966  0.85536  1.0000
  C   C33       1.0  0.00060  0.54101  0.38218  1.0000
  C   C34       1.0  0.99940  0.04101  0.11782  1.0000
  C   C35       1.0  0.99940  0.45899  0.61782  1.0000
  C   C36       1.0  0.00060  0.95899  0.88218  1.0000
  H   H13       1.0  0.01017  0.53246  0.40755  1.0000
  H   H14       1.0  0.98983  0.03246  0.09245  1.0000
  H   H15       1.0  0.98983  0.46754  0.59245  1.0000
  H   H16       1.0  0.01017  0.96754  0.90755  1.0000
  C   C37       1.0  0.97720  0.59548  0.37103  1.0000
  C   C38       1.0  0.02280  0.09548  0.12897  1.0000
  C   C39       1.0  0.02280  0.40452  0.62897  1.0000
  C   C40       1.0  0.97720  0.90452  0.87103  1.0000
  C   C41       1.0  0.95610  0.60671  0.33297  1.0000
  C   C42       1.0  0.04390  0.10671  0.16703  1.0000
  C   C43       1.0  0.04390  0.39329  0.66703  1.0000
  C   C44       1.0  0.95610  0.89329  0.83297  1.0000
  H   H17       1.0  0.93062  0.64168  0.32548  1.0000
  H   H18       1.0  0.06938  0.14168  0.17452  1.0000
  H   H19       1.0  0.06938  0.35832  0.67452  1.0000
  H   H20       1.0  0.93062  0.85832  0.82548  1.0000
  C   C45       1.0  0.97290  0.56613  0.30638  1.0000
  C   C46       1.0  0.02710  0.06613  0.19362  1.0000
  C   C47       1.0  0.02710  0.43387  0.69362  1.0000
  C   C48       1.0  0.97290  0.93387  0.80638  1.0000
  C   C49       1.0  0.00200  0.51314  0.31743  1.0000
  C   C50       1.0  0.99800  0.01314  0.18257  1.0000
  C   C51       1.0  0.99800  0.48686  0.68257  1.0000
  C   C52       1.0  0.00200  0.98686  0.81743  1.0000
  H   H21       1.0  0.01664  0.48619  0.29944  1.0000
  H   H22       1.0  0.98336  0.98619  0.20056  1.0000
  H   H23       1.0  0.98336  0.51381  0.70056  1.0000
  H   H24       1.0  0.01664  0.01381  0.79944  1.0000
  C   C53       1.0  0.02900  0.20280  0.34373  1.0000
  C   C54       1.0  0.97100  0.70280  0.15627  1.0000
  C   C55       1.0  0.97100  0.79720  0.65627  1.0000
  C   C56       1.0  0.02900  0.29720  0.84373  1.0000
  C   C57       1.0  0.04880  0.29446  0.47100  1.0000
  C   C58       1.0  0.95120  0.79446  0.02900  1.0000
  C   C59       1.0  0.95120  0.70554  0.52900  1.0000
  C   C60       1.0  0.04880  0.20554  0.97100  1.0000
  C   C61       1.0  0.95870  0.63910  0.39935  1.0000
  C   C62       1.0  0.04130  0.13910  0.10065  1.0000
  C   C63       1.0  0.04130  0.36090  0.60065  1.0000
  C   C64       1.0  0.95870  0.86090  0.89935  1.0000
  C   C65       1.0  0.97080  0.57886  0.26458  1.0000
  C   C66       1.0  0.02920  0.07886  0.23542  1.0000
  C   C67       1.0  0.02920  0.42114  0.73542  1.0000
  C   C68       1.0  0.97080  0.92114  0.76458  1.0000
  C   C69       1.0  0.66620  0.23532  0.56174  1.0000
  C   C70       1.0  0.33380  0.73532  0.93826  1.0000
  C   C71       1.0  0.33380  0.76468  0.43826  1.0000
  C   C72       1.0  0.66620  0.26468  0.06174  1.0000
  C   C73       1.0  0.54050  0.25639  0.55238  1.0000
  C   C74       1.0  0.45950  0.75639  0.94762  1.0000
  C   C75       1.0  0.45950  0.74361  0.44762  1.0000
  C   C76       1.0  0.54050  0.24361  0.05238  1.0000
  H   H25       1.0  0.53396  0.29036  0.54072  1.0000
  H   H26       1.0  0.46604  0.79036  0.95928  1.0000
  H   H27       1.0  0.46604  0.70964  0.45928  1.0000
  H   H28       1.0  0.53396  0.20964  0.04072  1.0000
  C   C77       1.0  0.42460  0.22686  0.56038  1.0000
  C   C78       1.0  0.57540  0.72686  0.93962  1.0000
  C   C79       1.0  0.57540  0.77314  0.43962  1.0000
  C   C80       1.0  0.42460  0.27314  0.06038  1.0000
  C   C81       1.0  0.43460  0.17618  0.57781  1.0000
  C   C82       1.0  0.56540  0.67618  0.92219  1.0000
  C   C83       1.0  0.56540  0.82382  0.42219  1.0000
  C   C84       1.0  0.43460  0.32382  0.07781  1.0000
  H   H29       1.0  0.35727  0.15639  0.58322  1.0000
  H   H30       1.0  0.64273  0.65639  0.91678  1.0000
  H   H31       1.0  0.64273  0.84361  0.41678  1.0000
  H   H32       1.0  0.35727  0.34361  0.08322  1.0000
  C   C85       1.0  0.55970  0.15501  0.58718  1.0000
  C   C86       1.0  0.44030  0.65501  0.91282  1.0000
  C   C87       1.0  0.44030  0.84499  0.41282  1.0000
  C   C88       1.0  0.55970  0.34499  0.08718  1.0000
  C   C89       1.0  0.67480  0.18494  0.57891  1.0000
  C   C90       1.0  0.32520  0.68494  0.92109  1.0000
  C   C91       1.0  0.32520  0.81506  0.42109  1.0000
  C   C92       1.0  0.67480  0.31506  0.07891  1.0000
  H   H33       1.0  0.75871  0.17070  0.58507  1.0000
  H   H34       1.0  0.24129  0.67070  0.91493  1.0000
  H   H35       1.0  0.24129  0.82930  0.41493  1.0000
  H   H36       1.0  0.75871  0.32930  0.08507  1.0000
  C   C93       1.0  0.57060  0.10307  0.60844  1.0000
  C   C94       1.0  0.42940  0.60307  0.89156  1.0000
  C   C95       1.0  0.42940  0.89693  0.39156  1.0000
  C   C96       1.0  0.57060  0.39693  0.10844  1.0000
  C   C97       1.0  0.45470  0.02042  0.64470  1.0000
  C   C98       1.0  0.54530  0.52042  0.85530  1.0000
  C   C99       1.0  0.54530  0.97958  0.35530  1.0000
  C   C100      1.0  0.45470  0.47958  0.14470  1.0000
  C   C101      1.0  0.33220  0.99705  0.65455  1.0000
  C   C102      1.0  0.66780  0.49705  0.84545  1.0000
  C   C103      1.0  0.66780  0.00295  0.34545  1.0000
  C   C104      1.0  0.33220  0.50295  0.15455  1.0000
  H   H37       1.0  0.25238  0.01556  0.64963  1.0000
  H   H38       1.0  0.74762  0.51556  0.85037  1.0000
  H   H39       1.0  0.74762  0.98444  0.35037  1.0000
  H   H40       1.0  0.25238  0.48444  0.14963  1.0000
  C   C105      1.0  0.32950  0.94583  0.67179  1.0000
  C   C106      1.0  0.67050  0.44583  0.82821  1.0000
  C   C107      1.0  0.67050  0.05417  0.32821  1.0000
  C   C108      1.0  0.32950  0.55417  0.17179  1.0000
  C   C109      1.0  0.44830  0.91886  0.67971  1.0000
  C   C110      1.0  0.55170  0.41886  0.82029  1.0000
  C   C111      1.0  0.55170  0.08114  0.32029  1.0000
  C   C112      1.0  0.44830  0.58114  0.17971  1.0000
  H   H41       1.0  0.44632  0.88478  0.69133  1.0000
  H   H42       1.0  0.55368  0.38478  0.80867  1.0000
  H   H43       1.0  0.55368  0.11522  0.30867  1.0000
  H   H44       1.0  0.44632  0.61522  0.19133  1.0000
  C   C113      1.0  0.57130  0.94260  0.67033  1.0000
  C   C114      1.0  0.42870  0.44260  0.82967  1.0000
  C   C115      1.0  0.42870  0.05740  0.32967  1.0000
  C   C116      1.0  0.57130  0.55740  0.17033  1.0000
  C   C117      1.0  0.57410  0.99310  0.65273  1.0000
  C   C118      1.0  0.42590  0.49310  0.84727  1.0000
  C   C119      1.0  0.42590  0.00690  0.34727  1.0000
  C   C120      1.0  0.57410  0.50690  0.15273  1.0000
  H   H45       1.0  0.65583  0.00879  0.64625  1.0000
  H   H46       1.0  0.34417  0.50879  0.85375  1.0000
  H   H47       1.0  0.34417  0.99121  0.35375  1.0000
  H   H48       1.0  0.65583  0.49121  0.14625  1.0000
  C   C121      1.0  0.79330  0.26280  0.55446  1.0000
  C   C122      1.0  0.20670  0.76280  0.94554  1.0000
  C   C123      1.0  0.20670  0.73720  0.44554  1.0000
  C   C124      1.0  0.79330  0.23720  0.05446  1.0000
  C   C125      1.0  0.28880  0.25161  0.55298  1.0000
  C   C126      1.0  0.71120  0.75161  0.94702  1.0000
  C   C127      1.0  0.71120  0.74839  0.44702  1.0000
  C   C128      1.0  0.28880  0.24839  0.05298  1.0000
  C   C129      1.0  0.18820  0.92944  0.68165  1.0000
  C   C130      1.0  0.81180  0.42944  0.81835  1.0000
  C   C131      1.0  0.81180  0.07056  0.31835  1.0000
  C   C132      1.0  0.18820  0.57056  0.18165  1.0000
  C   C133      1.0  0.70850  0.92223  0.67625  1.0000
  C   C134      1.0  0.29150  0.42223  0.82375  1.0000
  C   C135      1.0  0.29150  0.07777  0.32375  1.0000
  C   C136      1.0  0.70850  0.57777  0.17625  1.0000
  In  In1       1.0  0.04207  0.11068  0.30557  1.0000
  In  In2       1.0  0.95793  0.61068  0.19443  1.0000
  In  In3       1.0  0.95793  0.88932  0.69443  1.0000
  In  In4       1.0  0.04207  0.38932  0.80557  1.0000
  In  In5       1.0  0.04598  0.29054  0.54390  1.0000
  In  In6       1.0  0.95402  0.79054  0.95610  1.0000
  In  In7       1.0  0.95402  0.70946  0.45610  1.0000
  In  In8       1.0  0.04598  0.20946  0.04390  1.0000
  N   N1        1.0  0.03880  0.44414  0.36722  1.0000
  N   N2        1.0  0.96120  0.94414  0.13278  1.0000
  N   N3        1.0  0.96120  0.55586  0.63278  1.0000
  N   N4        1.0  0.03880  0.05586  0.86722  1.0000
  H   H49       1.0  0.10676  0.43711  0.38145  1.0000
  H   H50       1.0  0.89324  0.93711  0.11855  1.0000
  H   H51       1.0  0.89324  0.56289  0.61855  1.0000
  H   H52       1.0  0.10676  0.06289  0.88145  1.0000
  N   N5        1.0  0.45820  0.07435  0.62648  1.0000
  N   N6        1.0  0.54180  0.57435  0.87352  1.0000
  N   N7        1.0  0.54180  0.92565  0.37352  1.0000
  N   N8        1.0  0.45820  0.42565  0.12648  1.0000
  H   H53       1.0  0.38319  0.09178  0.62634  1.0000
  H   H54       1.0  0.61681  0.59178  0.87366  1.0000
  H   H55       1.0  0.61681  0.90822  0.37366  1.0000
  H   H56       1.0  0.38319  0.40822  0.12634  1.0000
  O   O1        1.0  0.03290  0.20347  0.30902  1.0000
  O   O2        1.0  0.96710  0.70347  0.19098  1.0000
  O   O3        1.0  0.96710  0.79653  0.69098  1.0000
  O   O4        1.0  0.03290  0.29653  0.80902  1.0000
  O   O5        1.0  0.05030  0.15665  0.35941  1.0000
  O   O6        1.0  0.94970  0.65665  0.14059  1.0000
  O   O7        1.0  0.94970  0.84335  0.64059  1.0000
  O   O8        1.0  0.05030  0.34335  0.85941  1.0000
  O   O9        1.0  0.04260  0.24867  0.48745  1.0000
  O   O10       1.0  0.95740  0.74867  0.01255  1.0000
  O   O11       1.0  0.95740  0.75133  0.51255  1.0000
  O   O12       1.0  0.04260  0.25133  0.98745  1.0000
  O   O13       1.0  0.05400  0.33646  0.49037  1.0000
  O   O14       1.0  0.94600  0.83646  0.00963  1.0000
  O   O15       1.0  0.94600  0.66354  0.50963  1.0000
  O   O16       1.0  0.05400  0.16354  0.99037  1.0000
  O   O17       1.0  0.85430  0.40323  0.33149  1.0000
  O   O18       1.0  0.14570  0.90323  0.16851  1.0000
  O   O19       1.0  0.14570  0.59677  0.66851  1.0000
  O   O20       1.0  0.85430  0.09677  0.83149  1.0000
  O   O21       1.0  0.95670  0.62532  0.43381  1.0000
  O   O22       1.0  0.04330  0.12532  0.06619  1.0000
  O   O23       1.0  0.04330  0.37468  0.56619  1.0000
  O   O24       1.0  0.95670  0.87468  0.93381  1.0000
  O   O25       1.0  0.96260  0.68818  0.39132  1.0000
  O   O26       1.0  0.03740  0.18818  0.10868  1.0000
  O   O27       1.0  0.03740  0.31182  0.60868  1.0000
  O   O28       1.0  0.96260  0.81182  0.89132  1.0000
  O   O29       1.0  0.95910  0.62851  0.25468  1.0000
  O   O30       1.0  0.04090  0.12851  0.24532  1.0000
  O   O31       1.0  0.04090  0.37149  0.74532  1.0000
  O   O32       1.0  0.95910  0.87149  0.75468  1.0000
  O   O33       1.0  0.97000  0.53992  0.24249  1.0000
  O   O34       1.0  0.03000  0.03992  0.25751  1.0000
  O   O35       1.0  0.03000  0.46008  0.75751  1.0000
  O   O36       1.0  0.97000  0.96008  0.74249  1.0000
  O   O37       1.0  0.85150  0.25371  0.52462  1.0000
  O   O38       1.0  0.14850  0.75371  0.97538  1.0000
  O   O39       1.0  0.14850  0.74629  0.47538  1.0000
  O   O40       1.0  0.85150  0.24629  0.02462  1.0000
  O   O41       1.0  0.85840  0.29140  0.57818  1.0000
  O   O42       1.0  0.14160  0.79140  0.92182  1.0000
  O   O43       1.0  0.14160  0.70860  0.42182  1.0000
  O   O44       1.0  0.85840  0.20860  0.07818  1.0000
  O   O45       1.0  0.29240  0.29658  0.53511  1.0000
  O   O46       1.0  0.70760  0.79658  0.96489  1.0000
  O   O47       1.0  0.70760  0.70342  0.46489  1.0000
  O   O48       1.0  0.29240  0.20342  0.03511  1.0000
  O   O49       1.0  0.19070  0.22527  0.56323  1.0000
  O   O50       1.0  0.80930  0.72527  0.93677  1.0000
  O   O51       1.0  0.80930  0.77473  0.43677  1.0000
  O   O52       1.0  0.19070  0.27473  0.06323  1.0000
  O   O53       1.0  0.68790  0.08534  0.61344  1.0000
  O   O54       1.0  0.31210  0.58534  0.88656  1.0000
  O   O55       1.0  0.31210  0.91466  0.38656  1.0000
  O   O56       1.0  0.68790  0.41466  0.11344  1.0000
  O   O57       1.0  0.10170  0.95885  0.67398  1.0000
  O   O58       1.0  0.89830  0.45885  0.82602  1.0000
  O   O59       1.0  0.89830  0.04115  0.32602  1.0000
  O   O60       1.0  0.10170  0.54115  0.17398  1.0000
  O   O61       1.0  0.15730  0.88616  0.69608  1.0000
  O   O62       1.0  0.84270  0.38616  0.80392  1.0000
  O   O63       1.0  0.84270  0.11384  0.30392  1.0000
  O   O64       1.0  0.15730  0.61384  0.19608  1.0000
  O   O65       1.0  0.70196  0.87985  0.69636  1.0000
  O   O66       1.0  0.29804  0.37985  0.80364  1.0000
  O   O67       1.0  0.29804  0.12015  0.30364  1.0000
  O   O68       1.0  0.70196  0.62015  0.19636  1.0000
  O   O69       1.0  0.80670  0.94381  0.66093  1.0000
  O   O70       1.0  0.19330  0.44381  0.83907  1.0000
  O   O71       1.0  0.19330  0.05619  0.33907  1.0000
  O   O72       1.0  0.80670  0.55619  0.16093  1.0000
