data_image0
_chemical_formula_structural       U4S6O32C2H4C4H4C6H4C6H4C4H4C2H4U4S6O32C2H4C2H4C6H4C4H4C4H4C4H4C2
_chemical_formula_sum              "U8 S12 O64 C48 H48"
_cell_length_a       18.3253
_cell_length_b       8.2754
_cell_length_c       21.0402
_cell_angle_alpha    90
_cell_angle_beta     95.401
_cell_angle_gamma    90

_space_group_name_H-M_alt    "P 1"
_space_group_IT_number       1

loop_
  _space_group_symop_operation_xyz
  'x, y, z'

loop_
  _atom_site_type_symbol
  _atom_site_label
  _atom_site_symmetry_multiplicity
  _atom_site_fract_x
  _atom_site_fract_y
  _atom_site_fract_z
  _atom_site_occupancy
  U   U1        1.0  0.75818  0.56370  0.79092  1.0000
  U   U2        1.0  0.75818  0.43630  0.29092  1.0000
  U   U3        1.0  0.27109  0.57038  0.77102  1.0000
  U   U4        1.0  0.27109  0.42962  0.27102  1.0000
  S   S1        1.0  0.87076  0.05420  0.92473  1.0000
  S   S2        1.0  0.87076  0.94580  0.42473  1.0000
  S   S3        1.0  0.10851  0.06040  0.82279  1.0000
  S   S4        1.0  0.10851  0.93960  0.32279  1.0000
  S   S5        1.0  0.50556  0.49960  0.63606  1.0000
  S   S6        1.0  0.50556  0.50040  0.13606  1.0000
  O   O1        1.0  0.31600  0.48850  0.84250  1.0000
  O   O2        1.0  0.31600  0.51150  0.34250  1.0000
  O   O3        1.0  0.81970  0.48300  0.74040  1.0000
  O   O4        1.0  0.81970  0.51700  0.24040  1.0000
  O   O5        1.0  0.37360  0.47990  0.70590  1.0000
  O   O6        1.0  0.37360  0.52010  0.20590  1.0000
  O   O7        1.0  0.65100  0.45760  0.72490  1.0000
  O   O8        1.0  0.65100  0.54240  0.22490  1.0000
  O   O9        1.0  0.85850  0.70740  0.85640  1.0000
  O   O10       1.0  0.85850  0.29260  0.35640  1.0000
  O   O11       1.0  0.81630  0.38910  0.87790  1.0000
  O   O12       1.0  0.81630  0.61090  0.37790  1.0000
  O   O13       1.0  0.69150  0.69360  0.69870  1.0000
  O   O14       1.0  0.69150  0.30640  0.19870  1.0000
  O   O15       1.0  0.69780  0.64570  0.84220  1.0000
  O   O16       1.0  0.69780  0.35430  0.34220  1.0000
  O   O17       1.0  0.72150  0.28860  0.82250  1.0000
  O   O18       1.0  0.72150  0.71140  0.32250  1.0000
  O   O19       1.0  0.16810  0.39360  0.78880  1.0000
  O   O20       1.0  0.16810  0.60640  0.28880  1.0000
  O   O21       1.0  0.80550  0.83820  0.77710  1.0000
  O   O22       1.0  0.80550  0.16180  0.27710  1.0000
  O   O23       1.0  0.27980  0.84600  0.81470  1.0000
  O   O24       1.0  0.27980  0.15400  0.31470  1.0000
  O   O25       1.0  0.22520  0.64910  0.70040  1.0000
  O   O26       1.0  0.22520  0.35090  0.20040  1.0000
  O   O27       1.0  0.38210  0.71850  0.75120  1.0000
  O   O28       1.0  0.38210  0.28150  0.25120  1.0000
  O   O29       1.0  0.18460  0.70570  0.83400  1.0000
  O   O30       1.0  0.18460  0.29430  0.33400  1.0000
  O   O31       1.0  0.25030  0.29020  0.73220  1.0000
  O   O32       1.0  0.25030  0.70980  0.23220  1.0000
  C   C1        1.0  0.59660  0.57690  0.62780  1.0000
  C   C2        1.0  0.59660  0.42310  0.12780  1.0000
  H   H1        1.0  0.61860  0.51270  0.59470  1.0000
  H   H2        1.0  0.61860  0.48730  0.09470  1.0000
  H   H3        1.0  0.59220  0.68970  0.61230  1.0000
  H   H4        1.0  0.59220  0.31030  0.11230  1.0000
  C   C3        1.0  0.64800  0.57390  0.68760  1.0000
  C   C4        1.0  0.64800  0.42610  0.18760  1.0000
  C   C5        1.0  0.77720  0.12270  0.90550  1.0000
  C   C6        1.0  0.77720  0.87730  0.40550  1.0000
  H   H5        1.0  0.74890  0.03590  0.88200  1.0000
  H   H6        1.0  0.74890  0.96410  0.38200  1.0000
  H   H7        1.0  0.75450  0.14260  0.94570  1.0000
  H   H8        1.0  0.75450  0.85740  0.44570  1.0000
  C   C7        1.0  0.19180  0.27830  0.75890  1.0000
  C   C8        1.0  0.19180  0.72170  0.25890  1.0000
  C   C9        1.0  0.21890  0.83790  0.83830  1.0000
  C   C10       1.0  0.21890  0.16210  0.33830  1.0000
  C   C11       1.0  0.89170  0.98960  0.84660  1.0000
  C   C12       1.0  0.89170  0.01040  0.34660  1.0000
  H   H9        1.0  0.87870  0.07680  0.81540  1.0000
  H   H10       1.0  0.87870  0.92320  0.31540  1.0000
  H   H11       1.0  0.94510  0.96980  0.84740  1.0000
  H   H12       1.0  0.94510  0.03020  0.34740  1.0000
  C   C13       1.0  0.40620  0.61010  0.71660  1.0000
  C   C14       1.0  0.40620  0.38990  0.21660  1.0000
  C   C15       1.0  0.77180  0.27290  0.86620  1.0000
  C   C16       1.0  0.77180  0.72710  0.36620  1.0000
  C   C17       1.0  0.14740  0.12300  0.75140  1.0000
  C   C18       1.0  0.14740  0.87700  0.25140  1.0000
  H   H13       1.0  0.17940  0.03550  0.73790  1.0000
  H   H14       1.0  0.17940  0.96450  0.23790  1.0000
  H   H15       1.0  0.10720  0.13820  0.71700  1.0000
  H   H16       1.0  0.10720  0.86180  0.21700  1.0000
  C   C19       1.0  0.85060  0.83680  0.82530  1.0000
  C   C20       1.0  0.85060  0.16320  0.32530  1.0000
  C   C21       1.0  0.48220  0.64230  0.69360  1.0000
  C   C22       1.0  0.48220  0.35770  0.19360  1.0000
  H   H17       1.0  0.51960  0.63910  0.73070  1.0000
  H   H18       1.0  0.51960  0.36090  0.23070  1.0000
  H   H19       1.0  0.48270  0.75200  0.67480  1.0000
  H   H20       1.0  0.48270  0.24800  0.17480  1.0000
  C   C23       1.0  0.18930  0.98350  0.86840  1.0000
  C   C24       1.0  0.18930  0.01650  0.36840  1.0000
  H   H21       1.0  0.22740  0.06870  0.87230  1.0000
  H   H22       1.0  0.22740  0.93130  0.37230  1.0000
  H   H23       1.0  0.17720  0.95580  0.91200  1.0000
  H   H24       1.0  0.17720  0.04420  0.41200  1.0000
  U   U5        1.0  0.58934  0.03679  0.51049  1.0000
  U   U6        1.0  0.58934  0.96321  0.01049  1.0000
  U   U7        1.0  0.07780  0.98624  0.54273  1.0000
  U   U8        1.0  0.07780  0.01376  0.04273  1.0000
  S   S7        1.0  0.48889  0.51550  0.37026  1.0000
  S   S8        1.0  0.48889  0.48450  0.87026  1.0000
  S   S9        1.0  0.24647  0.48970  0.49513  1.0000
  S   S10       1.0  0.24647  0.51030  0.99513  1.0000
  S   S11       1.0  0.84113  0.15140  0.65249  1.0000
  S   S12       1.0  0.84113  0.84860  0.15249  1.0000
  O   O33       1.0  0.69800  0.95610  0.57860  1.0000
  O   O34       1.0  0.69800  0.04390  0.07860  1.0000
  O   O35       1.0  0.17200  0.83150  0.49190  1.0000
  O   O36       1.0  0.17200  0.16850  0.99190  1.0000
  O   O37       1.0  0.96610  0.84800  0.56970  1.0000
  O   O38       1.0  0.96610  0.15200  0.06970  1.0000
  O   O39       1.0  0.18450  0.15270  0.52740  1.0000
  O   O40       1.0  0.18450  0.84730  0.02740  1.0000
  O   O41       1.0  0.62860  0.76150  0.48340  1.0000
  O   O42       1.0  0.62860  0.23850  0.98340  1.0000
  O   O43       1.0  0.52480  0.84280  0.43320  1.0000
  O   O44       1.0  0.52480  0.15720  0.93320  1.0000
  O   O45       1.0  0.65380  0.19420  0.59620  1.0000
  O   O46       1.0  0.65380  0.80580  0.09620  1.0000
  O   O47       1.0  0.53270  0.96380  0.56760  1.0000
  O   O48       1.0  0.53270  0.03620  0.06760  1.0000
  O   O49       1.0  0.03660  0.05440  0.46860  1.0000
  O   O50       1.0  0.03660  0.94560  0.96860  1.0000
  O   O51       1.0  0.97600  0.10210  0.59650  1.0000
  O   O52       1.0  0.97600  0.89790  0.09650  1.0000
  O   O53       1.0  0.11830  0.91630  0.61630  1.0000
  O   O54       1.0  0.11830  0.08370  0.11630  1.0000
  O   O55       1.0  0.10080  0.26620  0.57920  1.0000
  O   O56       1.0  0.10080  0.73380  0.07920  1.0000
  O   O57       1.0  0.54660  0.31900  0.51470  1.0000
  O   O58       1.0  0.54660  0.68100  0.01470  1.0000
  O   O59       1.0  0.06870  0.70450  0.49990  1.0000
  O   O60       1.0  0.06870  0.29550  0.99990  1.0000
  O   O61       1.0  0.48430  0.16560  0.44440  1.0000
  O   O62       1.0  0.48430  0.83440  0.94440  1.0000
  O   O63       1.0  0.64570  0.10690  0.45290  1.0000
  O   O64       1.0  0.64570  0.89310  0.95290  1.0000
  C   C25       1.0  0.45540  0.44860  0.44410  1.0000
  C   C26       1.0  0.45540  0.55140  0.94410  1.0000
  H   H25       1.0  0.46070  0.53690  0.47590  1.0000
  H   H26       1.0  0.46070  0.46310  0.97590  1.0000
  H   H27       1.0  0.40280  0.42100  0.43650  1.0000
  H   H28       1.0  0.40280  0.57900  0.93650  1.0000
  C   C27       1.0  0.16390  0.56290  0.45050  1.0000
  C   C28       1.0  0.16390  0.43710  0.95050  1.0000
  H   H29       1.0  0.17490  0.59280  0.40690  1.0000
  H   H30       1.0  0.17490  0.40720  0.90690  1.0000
  H   H31       1.0  0.12680  0.47550  0.44680  1.0000
  H   H32       1.0  0.12680  0.52450  0.94680  1.0000
  C   C29       1.0  0.49740  0.30410  0.46960  1.0000
  C   C30       1.0  0.49740  0.69590  0.96960  1.0000
  C   C31       1.0  0.69900  0.08200  0.61260  1.0000
  C   C32       1.0  0.69900  0.91800  0.11260  1.0000
  C   C33       1.0  0.57740  0.59150  0.39970  1.0000
  C   C34       1.0  0.57740  0.40850  0.89970  1.0000
  H   H33       1.0  0.60430  0.50490  0.42440  1.0000
  H   H34       1.0  0.60430  0.49510  0.92440  1.0000
  H   H35       1.0  0.60510  0.61720  0.36280  1.0000
  H   H36       1.0  0.60510  0.38280  0.86280  1.0000
  C   C35       1.0  0.93990  0.97050  0.59430  1.0000
  C   C36       1.0  0.93990  0.02950  0.09430  1.0000
  C   C37       1.0  0.74940  0.10010  0.67120  1.0000
  C   C38       1.0  0.74940  0.89990  0.17120  1.0000
  H   H37       1.0  0.75090  0.99780  0.69560  1.0000
  H   H38       1.0  0.75090  0.00220  0.19560  1.0000
  H   H39       1.0  0.73090  0.18600  0.69830  1.0000
  H   H40       1.0  0.73090  0.81400  0.19830  1.0000
  C   C39       1.0  0.57630  0.73880  0.44110  1.0000
  C   C40       1.0  0.57630  0.26120  0.94110  1.0000
  C   C41       1.0  0.86780  0.95970  0.62170  1.0000
  C   C42       1.0  0.86780  0.04030  0.12170  1.0000
  H   H41       1.0  0.87110  0.87870  0.65640  1.0000
  H   H42       1.0  0.87110  0.12130  0.15640  1.0000
  H   H43       1.0  0.82990  0.92300  0.58820  1.0000
  H   H44       1.0  0.82990  0.07700  0.08820  1.0000
  C   C43       1.0  0.13240  0.70870  0.48240  1.0000
  C   C44       1.0  0.13240  0.29130  0.98240  1.0000
  C   C45       1.0  0.20800  0.42490  0.56610  1.0000
  C   C46       1.0  0.20800  0.57510  0.06610  1.0000
  H   H45       1.0  0.24820  0.40600  0.60000  1.0000
  H   H46       1.0  0.24820  0.59400  0.10000  1.0000
  H   H47       1.0  0.17680  0.51250  0.58070  1.0000
  H   H48       1.0  0.17680  0.48750  0.08070  1.0000
  C   C47       1.0  0.16270  0.27290  0.55690  1.0000
  C   C48       1.0  0.16270  0.72710  0.05690  1.0000
