data_image0
_chemical_formula_structural       U8S12O64C4H8C8H8C20H8C8H8C4H8C4H8
_chemical_formula_sum              "U8 S12 O64 C48 H48"
_cell_length_a       15.4597
_cell_length_b       8.4774
_cell_length_c       24.835
_cell_angle_alpha    90
_cell_angle_beta     105.932
_cell_angle_gamma    90

_space_group_name_H-M_alt    "P 1"
_space_group_IT_number       1

loop_
  _space_group_symop_operation_xyz
  'x, y, z'

loop_
  _atom_site_type_symbol
  _atom_site_label
  _atom_site_symmetry_multiplicity
  _atom_site_fract_x
  _atom_site_fract_y
  _atom_site_fract_z
  _atom_site_occupancy
  U   U1        1.0  0.41752  0.62487  0.35959  1.0000
  U   U2        1.0  0.58248  0.12487  0.14041  1.0000
  U   U3        1.0  0.58248  0.37513  0.64041  1.0000
  U   U4        1.0  0.41752  0.87513  0.85959  1.0000
  U   U5        1.0  0.05057  0.39531  0.12242  1.0000
  U   U6        1.0  0.94943  0.89531  0.37758  1.0000
  U   U7        1.0  0.94943  0.60469  0.87758  1.0000
  U   U8        1.0  0.05057  0.10469  0.62242  1.0000
  S   S1        1.0  0.35950  0.12670  0.47851  1.0000
  S   S2        1.0  0.64050  0.62670  0.02149  1.0000
  S   S3        1.0  0.64050  0.87330  0.52149  1.0000
  S   S4        1.0  0.35950  0.37330  0.97851  1.0000
  S   S5        1.0  0.38130  0.62815  0.14744  1.0000
  S   S6        1.0  0.61870  0.12815  0.35256  1.0000
  S   S7        1.0  0.61870  0.37185  0.85256  1.0000
  S   S8        1.0  0.38130  0.87185  0.64744  1.0000
  S   S9        1.0  0.83050  0.89063  0.10549  1.0000
  S   S10       1.0  0.16950  0.39063  0.39451  1.0000
  S   S11       1.0  0.16950  0.10937  0.89451  1.0000
  S   S12       1.0  0.83050  0.60937  0.60549  1.0000
  O   O1        1.0  0.37320  0.90570  0.35004  1.0000
  O   O2        1.0  0.62680  0.40570  0.14996  1.0000
  O   O3        1.0  0.62680  0.09430  0.64996  1.0000
  O   O4        1.0  0.37320  0.59430  0.85004  1.0000
  O   O5        1.0  0.40841  0.47900  0.44414  1.0000
  O   O6        1.0  0.59159  0.97900  0.05586  1.0000
  O   O7        1.0  0.59159  0.52100  0.55586  1.0000
  O   O8        1.0  0.40841  0.02100  0.94414  1.0000
  O   O9        1.0  0.02517  0.67800  0.10158  1.0000
  O   O10       1.0  0.97483  0.17800  0.39842  1.0000
  O   O11       1.0  0.97483  0.32200  0.89842  1.0000
  O   O12       1.0  0.02517  0.82200  0.60158  1.0000
  O   O13       1.0  0.05190  0.11050  0.14343  1.0000
  O   O14       1.0  0.94810  0.61050  0.35657  1.0000
  O   O15       1.0  0.94810  0.88950  0.85657  1.0000
  O   O16       1.0  0.05190  0.38950  0.64343  1.0000
  O   O17       1.0  0.35482  0.78420  0.42304  1.0000
  O   O18       1.0  0.64518  0.28420  0.07696  1.0000
  O   O19       1.0  0.64518  0.21580  0.57696  1.0000
  O   O20       1.0  0.35482  0.71580  0.92304  1.0000
  O   O21       1.0  0.19339  0.54740  0.13921  1.0000
  O   O22       1.0  0.80661  0.04740  0.36079  1.0000
  O   O23       1.0  0.80661  0.45260  0.86079  1.0000
  O   O24       1.0  0.19339  0.95260  0.63921  1.0000
  O   O25       1.0  0.04580  0.35650  0.05194  1.0000
  O   O26       1.0  0.95420  0.85650  0.44806  1.0000
  O   O27       1.0  0.95420  0.64350  0.94806  1.0000
  O   O28       1.0  0.04580  0.14350  0.55194  1.0000
  O   O29       1.0  0.20551  0.29090  0.14532  1.0000
  O   O30       1.0  0.79449  0.79090  0.35468  1.0000
  O   O31       1.0  0.79449  0.70910  0.85468  1.0000
  O   O32       1.0  0.20551  0.20910  0.64532  1.0000
  O   O33       1.0  0.43350  0.74640  0.27450  1.0000
  O   O34       1.0  0.56650  0.24640  0.22550  1.0000
  O   O35       1.0  0.56650  0.25360  0.72550  1.0000
  O   O36       1.0  0.43350  0.75360  0.77450  1.0000
  O   O37       1.0  0.45890  0.35170  0.38349  1.0000
  O   O38       1.0  0.54110  0.85170  0.11651  1.0000
  O   O39       1.0  0.54110  0.64830  0.61651  1.0000
  O   O40       1.0  0.45890  0.14830  0.88349  1.0000
  O   O41       1.0  0.90502  0.53190  0.08655  1.0000
  O   O42       1.0  0.09498  0.03190  0.41345  1.0000
  O   O43       1.0  0.09498  0.46810  0.91345  1.0000
  O   O44       1.0  0.90502  0.96810  0.58655  1.0000
  O   O45       1.0  0.05680  0.43580  0.19309  1.0000
  O   O46       1.0  0.94320  0.93580  0.30691  1.0000
  O   O47       1.0  0.94320  0.56420  0.80691  1.0000
  O   O48       1.0  0.05680  0.06420  0.69309  1.0000
  O   O49       1.0  0.52690  0.68710  0.39744  1.0000
  O   O50       1.0  0.47310  0.18710  0.10256  1.0000
  O   O51       1.0  0.47310  0.31290  0.60256  1.0000
  O   O52       1.0  0.52690  0.81290  0.89744  1.0000
  O   O53       1.0  0.92180  0.22780  0.12141  1.0000
  O   O54       1.0  0.07820  0.72780  0.37859  1.0000
  O   O55       1.0  0.07820  0.77220  0.87859  1.0000
  O   O56       1.0  0.92180  0.27220  0.62141  1.0000
  O   O57       1.0  0.30940  0.56400  0.32195  1.0000
  O   O58       1.0  0.69060  0.06400  0.17805  1.0000
  O   O59       1.0  0.69060  0.43600  0.67805  1.0000
  O   O60       1.0  0.30940  0.93600  0.82195  1.0000
  O   O61       1.0  0.48410  0.50800  0.28995  1.0000
  O   O62       1.0  0.51590  0.00800  0.21005  1.0000
  O   O63       1.0  0.51590  0.49200  0.71005  1.0000
  O   O64       1.0  0.48410  0.99200  0.78995  1.0000
  C   C1        1.0  0.30560  0.05550  0.40911  1.0000
  C   C2        1.0  0.69440  0.55550  0.09089  1.0000
  C   C3        1.0  0.69440  0.94450  0.59089  1.0000
  C   C4        1.0  0.30560  0.44450  0.90911  1.0000
  H   H1        1.0  0.24160  0.03410  0.40620  1.0000
  H   H2        1.0  0.75840  0.53410  0.09380  1.0000
  H   H3        1.0  0.75840  0.96590  0.59380  1.0000
  H   H4        1.0  0.24160  0.46590  0.90620  1.0000
  H   H5        1.0  0.30780  0.13940  0.38180  1.0000
  H   H6        1.0  0.69220  0.63940  0.11820  1.0000
  H   H7        1.0  0.69220  0.86060  0.61820  1.0000
  H   H8        1.0  0.30780  0.36060  0.88180  1.0000
  C   C5        1.0  0.44080  0.35550  0.42958  1.0000
  C   C6        1.0  0.55920  0.85550  0.07042  1.0000
  C   C7        1.0  0.55920  0.64450  0.57042  1.0000
  C   C8        1.0  0.44080  0.14450  0.92958  1.0000
  C   C9        1.0  0.48550  0.62410  0.20217  1.0000
  C   C10       1.0  0.51450  0.12410  0.29783  1.0000
  C   C11       1.0  0.51450  0.37590  0.79783  1.0000
  C   C12       1.0  0.48550  0.87590  0.70217  1.0000
  H   H9        1.0  0.51960  0.52770  0.19860  1.0000
  H   H10       1.0  0.48040  0.02770  0.30140  1.0000
  H   H11       1.0  0.48040  0.47230  0.80140  1.0000
  H   H12       1.0  0.51960  0.97230  0.69860  1.0000
  H   H13       1.0  0.52250  0.71670  0.19850  1.0000
  H   H14       1.0  0.47750  0.21670  0.30150  1.0000
  H   H15       1.0  0.47750  0.28330  0.80150  1.0000
  H   H16       1.0  0.52250  0.78330  0.69850  1.0000
  C   C13       1.0  0.34730  0.90850  0.39346  1.0000
  C   C14       1.0  0.65270  0.40850  0.10654  1.0000
  C   C15       1.0  0.65270  0.09150  0.60654  1.0000
  C   C16       1.0  0.34730  0.59150  0.89346  1.0000
  C   C17       1.0  0.96870  0.10780  0.13923  1.0000
  C   C18       1.0  0.03130  0.60780  0.36077  1.0000
  C   C19       1.0  0.03130  0.89220  0.86077  1.0000
  C   C20       1.0  0.96870  0.39220  0.63923  1.0000
  C   C21       1.0  0.46740  0.62640  0.25847  1.0000
  C   C22       1.0  0.53260  0.12640  0.24153  1.0000
  C   C23       1.0  0.53260  0.37360  0.74153  1.0000
  C   C24       1.0  0.46740  0.87360  0.75847  1.0000
  C   C25       1.0  0.94120  0.66400  0.08273  1.0000
  C   C26       1.0  0.05880  0.16400  0.41727  1.0000
  C   C27       1.0  0.05880  0.33600  0.91727  1.0000
  C   C28       1.0  0.94120  0.83600  0.58273  1.0000
  C   C29       1.0  0.45960  0.21150  0.46640  1.0000
  C   C30       1.0  0.54040  0.71150  0.03360  1.0000
  C   C31       1.0  0.54040  0.78850  0.53360  1.0000
  C   C32       1.0  0.45960  0.28850  0.96640  1.0000
  H   H17       1.0  0.50170  0.24020  0.50290  1.0000
  H   H18       1.0  0.49830  0.74020  0.99710  1.0000
  H   H19       1.0  0.49830  0.75980  0.49710  1.0000
  H   H20       1.0  0.50170  0.25980  0.00290  1.0000
  H   H21       1.0  0.48940  0.13110  0.44870  1.0000
  H   H22       1.0  0.51060  0.63110  0.05130  1.0000
  H   H23       1.0  0.51060  0.86890  0.55130  1.0000
  H   H24       1.0  0.48940  0.36890  0.94870  1.0000
  C   C33       1.0  0.24080  0.42480  0.14596  1.0000
  C   C34       1.0  0.75920  0.92480  0.35404  1.0000
  C   C35       1.0  0.75920  0.57520  0.85404  1.0000
  C   C36       1.0  0.24080  0.07520  0.64596  1.0000
  C   C37       1.0  0.92680  0.96430  0.15756  1.0000
  C   C38       1.0  0.07320  0.46430  0.34244  1.0000
  C   C39       1.0  0.07320  0.03570  0.84244  1.0000
  C   C40       1.0  0.92680  0.53570  0.65756  1.0000
  H   H25       1.0  0.90860  0.99090  0.19170  1.0000
  H   H26       1.0  0.09140  0.49090  0.30830  1.0000
  H   H27       1.0  0.09140  0.00910  0.80830  1.0000
  H   H28       1.0  0.90860  0.50910  0.69170  1.0000
  H   H29       1.0  0.97260  0.87980  0.16750  1.0000
  H   H30       1.0  0.02740  0.37980  0.33250  1.0000
  H   H31       1.0  0.02740  0.12020  0.83250  1.0000
  H   H32       1.0  0.97260  0.62020  0.66750  1.0000
  C   C41       1.0  0.88560  0.80310  0.05758  1.0000
  C   C42       1.0  0.11440  0.30310  0.44242  1.0000
  C   C43       1.0  0.11440  0.19690  0.94242  1.0000
  C   C44       1.0  0.88560  0.69690  0.55758  1.0000
  H   H33       1.0  0.83970  0.76980  0.02320  1.0000
  H   H34       1.0  0.16030  0.26980  0.47680  1.0000
  H   H35       1.0  0.16030  0.23020  0.97680  1.0000
  H   H36       1.0  0.83970  0.73020  0.52320  1.0000
  H   H37       1.0  0.92460  0.88290  0.04680  1.0000
  H   H38       1.0  0.07540  0.38290  0.45320  1.0000
  H   H39       1.0  0.07540  0.11710  0.95320  1.0000
  H   H40       1.0  0.92460  0.61710  0.54680  1.0000
  C   C45       1.0  0.34100  0.43300  0.15770  1.0000
  C   C46       1.0  0.65900  0.93300  0.34230  1.0000
  C   C47       1.0  0.65900  0.56700  0.84230  1.0000
  C   C48       1.0  0.34100  0.06700  0.65770  1.0000
  H   H41       1.0  0.36050  0.35780  0.13290  1.0000
  H   H42       1.0  0.63950  0.85780  0.36710  1.0000
  H   H43       1.0  0.63950  0.64220  0.86710  1.0000
  H   H44       1.0  0.36050  0.14220  0.63290  1.0000
  H   H45       1.0  0.36880  0.39980  0.19690  1.0000
  H   H46       1.0  0.63120  0.89980  0.30310  1.0000
  H   H47       1.0  0.63120  0.60020  0.80310  1.0000
  H   H48       1.0  0.36880  0.10020  0.69690  1.0000
