data_image0
_chemical_formula_structural       Zn24O20N32O16N32C16H16C16O16C16N16H32C48H16C64H16O16C16H16C32H16C16H16C16H16C16H16C8H8C32H16C16H16C64H16C16H16C40H8
_chemical_formula_sum              "Zn24 O68 N80 C432 H240"
_cell_length_a       30.7575
_cell_length_b       10.7569
_cell_length_c       42.5942
_cell_angle_alpha    90
_cell_angle_beta     90
_cell_angle_gamma    90

_space_group_name_H-M_alt    "P 1"
_space_group_IT_number       1

loop_
  _space_group_symop_operation_xyz
  'x, y, z'

loop_
  _atom_site_type_symbol
  _atom_site_label
  _atom_site_symmetry_multiplicity
  _atom_site_fract_x
  _atom_site_fract_y
  _atom_site_fract_z
  _atom_site_occupancy
  Zn  Zn1       1.0  0.50000  0.75000  0.36266  1.0000
  Zn  Zn2       1.0  0.00000  0.25000  0.36266  1.0000
  Zn  Zn3       1.0  0.50000  0.75000  0.13734  1.0000
  Zn  Zn4       1.0  0.00000  0.25000  0.13734  1.0000
  Zn  Zn5       1.0  0.50000  0.25000  0.63734  1.0000
  Zn  Zn6       1.0  0.00000  0.75000  0.63734  1.0000
  Zn  Zn7       1.0  0.50000  0.25000  0.86266  1.0000
  Zn  Zn8       1.0  0.00000  0.75000  0.86266  1.0000
  Zn  Zn9       1.0  0.46056  0.13424  0.27166  1.0000
  Zn  Zn10      1.0  0.03944  0.86576  0.27166  1.0000
  Zn  Zn11      1.0  0.53944  0.13424  0.22834  1.0000
  Zn  Zn12      1.0  0.96056  0.86576  0.22834  1.0000
  Zn  Zn13      1.0  0.96056  0.63424  0.27166  1.0000
  Zn  Zn14      1.0  0.53944  0.36576  0.27166  1.0000
  Zn  Zn15      1.0  0.03944  0.63424  0.22834  1.0000
  Zn  Zn16      1.0  0.46056  0.36576  0.22834  1.0000
  Zn  Zn17      1.0  0.53944  0.86576  0.72834  1.0000
  Zn  Zn18      1.0  0.96056  0.13424  0.72834  1.0000
  Zn  Zn19      1.0  0.46056  0.86576  0.77166  1.0000
  Zn  Zn20      1.0  0.03944  0.13424  0.77166  1.0000
  Zn  Zn21      1.0  0.03944  0.36576  0.72834  1.0000
  Zn  Zn22      1.0  0.46056  0.63424  0.72834  1.0000
  Zn  Zn23      1.0  0.96056  0.36576  0.77166  1.0000
  Zn  Zn24      1.0  0.53944  0.63424  0.77166  1.0000
  O   O1        1.0  0.50000  0.25000  0.25000  1.0000
  O   O2        1.0  0.00000  0.75000  0.25000  1.0000
  O   O3        1.0  0.50000  0.75000  0.75000  1.0000
  O   O4        1.0  0.00000  0.25000  0.75000  1.0000
  O   O5        1.0  0.41838  0.22690  0.29557  1.0000
  O   O6        1.0  0.08162  0.77310  0.29557  1.0000
  O   O7        1.0  0.58162  0.22690  0.20443  1.0000
  O   O8        1.0  0.91838  0.77310  0.20443  1.0000
  O   O9        1.0  0.91838  0.72690  0.29557  1.0000
  O   O10       1.0  0.58162  0.27310  0.29557  1.0000
  O   O11       1.0  0.08162  0.72690  0.20443  1.0000
  O   O12       1.0  0.41838  0.27310  0.20443  1.0000
  O   O13       1.0  0.58162  0.77310  0.70443  1.0000
  O   O14       1.0  0.91838  0.22690  0.70443  1.0000
  O   O15       1.0  0.41838  0.77310  0.79557  1.0000
  O   O16       1.0  0.08162  0.22690  0.79557  1.0000
  O   O17       1.0  0.08162  0.27310  0.70443  1.0000
  O   O18       1.0  0.41838  0.72690  0.70443  1.0000
  O   O19       1.0  0.91838  0.27310  0.79557  1.0000
  O   O20       1.0  0.58162  0.72690  0.79557  1.0000
  N   N1        1.0  0.52011  0.88230  0.33211  1.0000
  N   N2        1.0  0.97989  0.11770  0.33211  1.0000
  N   N3        1.0  0.47989  0.88230  0.16789  1.0000
  N   N4        1.0  0.02011  0.11770  0.16789  1.0000
  N   N5        1.0  0.02011  0.38230  0.33211  1.0000
  N   N6        1.0  0.47989  0.61770  0.33211  1.0000
  N   N7        1.0  0.97989  0.38230  0.16789  1.0000
  N   N8        1.0  0.52011  0.61770  0.16789  1.0000
  N   N9        1.0  0.47989  0.11770  0.66789  1.0000
  N   N10       1.0  0.02011  0.88230  0.66789  1.0000
  N   N11       1.0  0.52011  0.11770  0.83211  1.0000
  N   N12       1.0  0.97989  0.88230  0.83211  1.0000
  N   N13       1.0  0.97989  0.61770  0.66789  1.0000
  N   N14       1.0  0.52011  0.38230  0.66789  1.0000
  N   N15       1.0  0.02011  0.61770  0.83211  1.0000
  N   N16       1.0  0.47989  0.38230  0.83211  1.0000
  N   N17       1.0  0.50046  0.02600  0.29578  1.0000
  N   N18       1.0  0.99954  0.97400  0.29578  1.0000
  N   N19       1.0  0.49954  0.02600  0.20422  1.0000
  N   N20       1.0  0.00046  0.97400  0.20422  1.0000
  N   N21       1.0  0.00046  0.52600  0.29578  1.0000
  N   N22       1.0  0.49954  0.47400  0.29578  1.0000
  N   N23       1.0  0.99954  0.52600  0.20422  1.0000
  N   N24       1.0  0.50046  0.47400  0.20422  1.0000
  N   N25       1.0  0.49954  0.97400  0.70422  1.0000
  N   N26       1.0  0.00046  0.02600  0.70422  1.0000
  N   N27       1.0  0.50046  0.97400  0.79578  1.0000
  N   N28       1.0  0.99954  0.02600  0.79578  1.0000
  N   N29       1.0  0.99954  0.47400  0.70422  1.0000
  N   N30       1.0  0.50046  0.52600  0.70422  1.0000
  N   N31       1.0  0.00046  0.47400  0.79578  1.0000
  N   N32       1.0  0.49954  0.52600  0.79578  1.0000
  O   O21       1.0  0.44565  0.30440  0.61883  1.0000
  O   O22       1.0  0.05435  0.69560  0.61883  1.0000
  O   O23       1.0  0.55435  0.30440  0.88117  1.0000
  O   O24       1.0  0.94565  0.69560  0.88117  1.0000
  O   O25       1.0  0.94565  0.80440  0.61883  1.0000
  O   O26       1.0  0.55435  0.19560  0.61883  1.0000
  O   O27       1.0  0.05435  0.80440  0.88117  1.0000
  O   O28       1.0  0.44565  0.19560  0.88117  1.0000
  O   O29       1.0  0.55435  0.69560  0.38117  1.0000
  O   O30       1.0  0.94565  0.30440  0.38117  1.0000
  O   O31       1.0  0.44565  0.69560  0.11883  1.0000
  O   O32       1.0  0.05435  0.30440  0.11883  1.0000
  O   O33       1.0  0.05435  0.19560  0.38117  1.0000
  O   O34       1.0  0.44565  0.80440  0.38117  1.0000
  O   O35       1.0  0.94565  0.19560  0.11883  1.0000
  O   O36       1.0  0.55435  0.80440  0.11883  1.0000
  N   N33       1.0  0.56287  0.01410  0.26190  1.0000
  N   N34       1.0  0.93713  0.98590  0.26190  1.0000
  N   N35       1.0  0.43713  0.01410  0.23810  1.0000
  N   N36       1.0  0.06287  0.98590  0.23810  1.0000
  N   N37       1.0  0.06287  0.51410  0.26190  1.0000
  N   N38       1.0  0.43713  0.48590  0.26190  1.0000
  N   N39       1.0  0.93713  0.51410  0.23810  1.0000
  N   N40       1.0  0.56287  0.48590  0.23810  1.0000
  N   N41       1.0  0.43713  0.98590  0.73810  1.0000
  N   N42       1.0  0.06287  0.01410  0.73810  1.0000
  N   N43       1.0  0.56287  0.98590  0.76190  1.0000
  N   N44       1.0  0.93713  0.01410  0.76190  1.0000
  N   N45       1.0  0.93713  0.48590  0.73810  1.0000
  N   N46       1.0  0.56287  0.51410  0.73810  1.0000
  N   N47       1.0  0.06287  0.48590  0.76190  1.0000
  N   N48       1.0  0.43713  0.51410  0.76190  1.0000
  N   N49       1.0  0.61544  0.86710  0.27919  1.0000
  N   N50       1.0  0.88456  0.13290  0.27919  1.0000
  N   N51       1.0  0.38456  0.86710  0.22081  1.0000
  N   N52       1.0  0.11544  0.13290  0.22081  1.0000
  N   N53       1.0  0.11544  0.36710  0.27919  1.0000
  N   N54       1.0  0.38456  0.63290  0.27919  1.0000
  N   N55       1.0  0.88456  0.36710  0.22081  1.0000
  N   N56       1.0  0.61544  0.63290  0.22081  1.0000
  N   N57       1.0  0.38456  0.13290  0.72081  1.0000
  N   N58       1.0  0.11544  0.86710  0.72081  1.0000
  N   N59       1.0  0.61544  0.13290  0.77919  1.0000
  N   N60       1.0  0.88456  0.86710  0.77919  1.0000
  N   N61       1.0  0.88456  0.63290  0.72081  1.0000
  N   N62       1.0  0.61544  0.36710  0.72081  1.0000
  N   N63       1.0  0.11544  0.63290  0.77919  1.0000
  N   N64       1.0  0.38456  0.36710  0.77919  1.0000
  C   C1        1.0  0.49067  0.96320  0.32268  1.0000
  C   C2        1.0  0.00933  0.03680  0.32268  1.0000
  C   C3        1.0  0.50933  0.96320  0.17732  1.0000
  C   C4        1.0  0.99067  0.03680  0.17732  1.0000
  C   C5        1.0  0.99067  0.46320  0.32268  1.0000
  C   C6        1.0  0.50933  0.53680  0.32268  1.0000
  C   C7        1.0  0.00933  0.46320  0.17732  1.0000
  C   C8        1.0  0.49067  0.53680  0.17732  1.0000
  C   C9        1.0  0.50933  0.03680  0.67732  1.0000
  C   C10       1.0  0.99067  0.96320  0.67732  1.0000
  C   C11       1.0  0.49067  0.03680  0.82268  1.0000
  C   C12       1.0  0.00933  0.96320  0.82268  1.0000
  C   C13       1.0  0.00933  0.53680  0.67732  1.0000
  C   C14       1.0  0.49067  0.46320  0.67732  1.0000
  C   C15       1.0  0.99067  0.53680  0.82268  1.0000
  C   C16       1.0  0.50933  0.46320  0.82268  1.0000
  H   H1        1.0  0.46438  0.97678  0.33388  1.0000
  H   H2        1.0  0.03562  0.02322  0.33388  1.0000
  H   H3        1.0  0.53562  0.97678  0.16612  1.0000
  H   H4        1.0  0.96438  0.02322  0.16612  1.0000
  H   H5        1.0  0.96438  0.47678  0.33388  1.0000
  H   H6        1.0  0.53562  0.52322  0.33388  1.0000
  H   H7        1.0  0.03562  0.47678  0.16612  1.0000
  H   H8        1.0  0.46438  0.52322  0.16612  1.0000
  H   H9        1.0  0.53562  0.02322  0.66612  1.0000
  H   H10       1.0  0.96438  0.97678  0.66612  1.0000
  H   H11       1.0  0.46438  0.02322  0.83388  1.0000
  H   H12       1.0  0.03562  0.97678  0.83388  1.0000
  H   H13       1.0  0.03562  0.52322  0.66612  1.0000
  H   H14       1.0  0.46438  0.47678  0.66612  1.0000
  H   H15       1.0  0.96438  0.52322  0.83388  1.0000
  H   H16       1.0  0.53562  0.47678  0.83388  1.0000
  C   C17       1.0  0.53926  0.98240  0.28766  1.0000
  C   C18       1.0  0.96074  0.01760  0.28766  1.0000
  C   C19       1.0  0.46074  0.98240  0.21234  1.0000
  C   C20       1.0  0.03926  0.01760  0.21234  1.0000
  C   C21       1.0  0.03926  0.48240  0.28766  1.0000
  C   C22       1.0  0.46074  0.51760  0.28766  1.0000
  C   C23       1.0  0.96074  0.48240  0.21234  1.0000
  C   C24       1.0  0.53926  0.51760  0.21234  1.0000
  C   C25       1.0  0.46074  0.01760  0.71234  1.0000
  C   C26       1.0  0.03926  0.98240  0.71234  1.0000
  C   C27       1.0  0.53926  0.01760  0.78766  1.0000
  C   C28       1.0  0.96074  0.98240  0.78766  1.0000
  C   C29       1.0  0.96074  0.51760  0.71234  1.0000
  C   C30       1.0  0.53926  0.48240  0.71234  1.0000
  C   C31       1.0  0.03926  0.51760  0.78766  1.0000
  C   C32       1.0  0.46074  0.48240  0.78766  1.0000
  O   O37       1.0  0.39659  0.05110  0.31394  1.0000
  O   O38       1.0  0.10341  0.94890  0.31394  1.0000
  O   O39       1.0  0.60341  0.05110  0.18606  1.0000
  O   O40       1.0  0.89659  0.94890  0.18606  1.0000
  O   O41       1.0  0.89659  0.55110  0.31394  1.0000
  O   O42       1.0  0.60341  0.44890  0.31394  1.0000
  O   O43       1.0  0.10341  0.55110  0.18606  1.0000
  O   O44       1.0  0.39659  0.44890  0.18606  1.0000
  O   O45       1.0  0.60341  0.94890  0.68606  1.0000
  O   O46       1.0  0.89659  0.05110  0.68606  1.0000
  O   O47       1.0  0.39659  0.94890  0.81394  1.0000
  O   O48       1.0  0.10341  0.05110  0.81394  1.0000
  O   O49       1.0  0.10341  0.44890  0.68606  1.0000
  O   O50       1.0  0.39659  0.55110  0.68606  1.0000
  O   O51       1.0  0.89659  0.44890  0.81394  1.0000
  O   O52       1.0  0.60341  0.55110  0.81394  1.0000
  C   C33       1.0  0.55218  0.89380  0.30959  1.0000
  C   C34       1.0  0.94782  0.10620  0.30959  1.0000
  C   C35       1.0  0.44782  0.89380  0.19041  1.0000
  C   C36       1.0  0.05218  0.10620  0.19041  1.0000
  C   C37       1.0  0.05218  0.39380  0.30959  1.0000
  C   C38       1.0  0.44782  0.60620  0.30959  1.0000
  C   C39       1.0  0.94782  0.39380  0.19041  1.0000
  C   C40       1.0  0.55218  0.60620  0.19041  1.0000
  C   C41       1.0  0.44782  0.10620  0.69041  1.0000
  C   C42       1.0  0.05218  0.89380  0.69041  1.0000
  C   C43       1.0  0.55218  0.10620  0.80959  1.0000
  C   C44       1.0  0.94782  0.89380  0.80959  1.0000
  C   C45       1.0  0.94782  0.60620  0.69041  1.0000
  C   C46       1.0  0.55218  0.39380  0.69041  1.0000
  C   C47       1.0  0.05218  0.60620  0.80959  1.0000
  C   C48       1.0  0.44782  0.39380  0.80959  1.0000
  N   N65       1.0  0.60780  0.75080  0.32598  1.0000
  N   N66       1.0  0.89220  0.24920  0.32598  1.0000
  N   N67       1.0  0.39220  0.75080  0.17402  1.0000
  N   N68       1.0  0.10780  0.24920  0.17402  1.0000
  N   N69       1.0  0.10780  0.25080  0.32598  1.0000
  N   N70       1.0  0.39220  0.74920  0.32598  1.0000
  N   N71       1.0  0.89220  0.25080  0.17402  1.0000
  N   N72       1.0  0.60780  0.74920  0.17402  1.0000
  N   N73       1.0  0.39220  0.24920  0.67402  1.0000
  N   N74       1.0  0.10780  0.75080  0.67402  1.0000
  N   N75       1.0  0.60780  0.24920  0.82598  1.0000
  N   N76       1.0  0.89220  0.75080  0.82598  1.0000
  N   N77       1.0  0.89220  0.74920  0.67402  1.0000
  N   N78       1.0  0.60780  0.25080  0.67402  1.0000
  N   N79       1.0  0.10780  0.74920  0.82598  1.0000
  N   N80       1.0  0.39220  0.25080  0.82598  1.0000
  H   H17       1.0  0.58690  0.71942  0.33694  1.0000
  H   H18       1.0  0.91310  0.28058  0.33694  1.0000
  H   H19       1.0  0.41310  0.71942  0.16306  1.0000
  H   H20       1.0  0.08690  0.28058  0.16306  1.0000
  H   H21       1.0  0.08690  0.21942  0.33694  1.0000
  H   H22       1.0  0.41310  0.78058  0.33694  1.0000
  H   H23       1.0  0.91310  0.21942  0.16306  1.0000
  H   H24       1.0  0.58690  0.78058  0.16306  1.0000
  H   H25       1.0  0.41310  0.28058  0.66306  1.0000
  H   H26       1.0  0.08690  0.71942  0.66306  1.0000
  H   H27       1.0  0.58690  0.28058  0.83694  1.0000
  H   H28       1.0  0.91310  0.71942  0.83694  1.0000
  H   H29       1.0  0.91310  0.78058  0.66306  1.0000
  H   H30       1.0  0.58690  0.21942  0.66306  1.0000
  H   H31       1.0  0.08690  0.78058  0.83694  1.0000
  H   H32       1.0  0.41310  0.21942  0.83694  1.0000
  H   H33       1.0  0.62022  0.69233  0.31542  1.0000
  H   H34       1.0  0.87978  0.30767  0.31542  1.0000
  H   H35       1.0  0.37978  0.69233  0.18458  1.0000
  H   H36       1.0  0.12022  0.30767  0.18458  1.0000
  H   H37       1.0  0.12022  0.19233  0.31542  1.0000
  H   H38       1.0  0.37978  0.80767  0.31542  1.0000
  H   H39       1.0  0.87978  0.19233  0.18458  1.0000
  H   H40       1.0  0.62022  0.80767  0.18458  1.0000
  H   H41       1.0  0.37978  0.30767  0.68458  1.0000
  H   H42       1.0  0.12022  0.69233  0.68458  1.0000
  H   H43       1.0  0.62022  0.30767  0.81542  1.0000
  H   H44       1.0  0.87978  0.69233  0.81542  1.0000
  H   H45       1.0  0.87978  0.80767  0.68458  1.0000
  H   H46       1.0  0.62022  0.19233  0.68458  1.0000
  H   H47       1.0  0.12022  0.80767  0.81542  1.0000
  H   H48       1.0  0.37978  0.19233  0.81542  1.0000
  C   C49       1.0  0.39570  0.16220  0.31389  1.0000
  C   C50       1.0  0.10430  0.83780  0.31389  1.0000
  C   C51       1.0  0.60430  0.16220  0.18611  1.0000
  C   C52       1.0  0.89570  0.83780  0.18611  1.0000
  C   C53       1.0  0.89570  0.66220  0.31389  1.0000
  C   C54       1.0  0.60430  0.33780  0.31389  1.0000
  C   C55       1.0  0.10430  0.66220  0.18611  1.0000
  C   C56       1.0  0.39570  0.33780  0.18611  1.0000
  C   C57       1.0  0.60430  0.83780  0.68611  1.0000
  C   C58       1.0  0.89570  0.16220  0.68611  1.0000
  C   C59       1.0  0.39570  0.83780  0.81389  1.0000
  C   C60       1.0  0.10430  0.16220  0.81389  1.0000
  C   C61       1.0  0.10430  0.33780  0.68611  1.0000
  C   C62       1.0  0.39570  0.66220  0.68611  1.0000
  C   C63       1.0  0.89570  0.33780  0.81389  1.0000
  C   C64       1.0  0.60430  0.66220  0.81389  1.0000
  C   C65       1.0  0.59190  0.83600  0.30550  1.0000
  C   C66       1.0  0.90810  0.16400  0.30550  1.0000
  C   C67       1.0  0.40810  0.83600  0.19450  1.0000
  C   C68       1.0  0.09190  0.16400  0.19450  1.0000
  C   C69       1.0  0.09190  0.33600  0.30550  1.0000
  C   C70       1.0  0.40810  0.66400  0.30550  1.0000
  C   C71       1.0  0.90810  0.33600  0.19450  1.0000
  C   C72       1.0  0.59190  0.66400  0.19450  1.0000
  C   C73       1.0  0.40810  0.16400  0.69450  1.0000
  C   C74       1.0  0.09190  0.83600  0.69450  1.0000
  C   C75       1.0  0.59190  0.16400  0.80550  1.0000
  C   C76       1.0  0.90810  0.83600  0.80550  1.0000
  C   C77       1.0  0.90810  0.66400  0.69450  1.0000
  C   C78       1.0  0.59190  0.33600  0.69450  1.0000
  C   C79       1.0  0.09190  0.66400  0.80550  1.0000
  C   C80       1.0  0.40810  0.33600  0.80550  1.0000
  C   C81       1.0  0.60010  0.94700  0.25995  1.0000
  C   C82       1.0  0.89990  0.05300  0.25995  1.0000
  C   C83       1.0  0.39990  0.94700  0.24005  1.0000
  C   C84       1.0  0.10010  0.05300  0.24005  1.0000
  C   C85       1.0  0.10010  0.44700  0.25995  1.0000
  C   C86       1.0  0.39990  0.55300  0.25995  1.0000
  C   C87       1.0  0.89990  0.44700  0.24005  1.0000
  C   C88       1.0  0.60010  0.55300  0.24005  1.0000
  C   C89       1.0  0.39990  0.05300  0.74005  1.0000
  C   C90       1.0  0.10010  0.94700  0.74005  1.0000
  C   C91       1.0  0.60010  0.05300  0.75995  1.0000
  C   C92       1.0  0.89990  0.94700  0.75995  1.0000
  C   C93       1.0  0.89990  0.55300  0.74005  1.0000
  C   C94       1.0  0.60010  0.44700  0.74005  1.0000
  C   C95       1.0  0.10010  0.55300  0.75995  1.0000
  C   C96       1.0  0.39990  0.44700  0.75995  1.0000
  H   H49       1.0  0.61722  0.96147  0.24173  1.0000
  H   H50       1.0  0.88278  0.03853  0.24173  1.0000
  H   H51       1.0  0.38278  0.96147  0.25827  1.0000
  H   H52       1.0  0.11722  0.03853  0.25827  1.0000
  H   H53       1.0  0.11722  0.46147  0.24173  1.0000
  H   H54       1.0  0.38278  0.53853  0.24173  1.0000
  H   H55       1.0  0.88278  0.46147  0.25827  1.0000
  H   H56       1.0  0.61722  0.53853  0.25827  1.0000
  H   H57       1.0  0.38278  0.03853  0.75827  1.0000
  H   H58       1.0  0.11722  0.96147  0.75827  1.0000
  H   H59       1.0  0.61722  0.03853  0.74173  1.0000
  H   H60       1.0  0.88278  0.96147  0.74173  1.0000
  H   H61       1.0  0.88278  0.53853  0.75827  1.0000
  H   H62       1.0  0.61722  0.46147  0.75827  1.0000
  H   H63       1.0  0.11722  0.53853  0.74173  1.0000
  H   H64       1.0  0.38278  0.46147  0.74173  1.0000
  C   C97       1.0  0.36920  0.23640  0.33710  1.0000
  C   C98       1.0  0.13080  0.76360  0.33710  1.0000
  C   C99       1.0  0.63080  0.23640  0.16290  1.0000
  C   C100      1.0  0.86920  0.76360  0.16290  1.0000
  C   C101      1.0  0.86920  0.73640  0.33710  1.0000
  C   C102      1.0  0.63080  0.26360  0.33710  1.0000
  C   C103      1.0  0.13080  0.73640  0.16290  1.0000
  C   C104      1.0  0.36920  0.26360  0.16290  1.0000
  C   C105      1.0  0.63080  0.76360  0.66290  1.0000
  C   C106      1.0  0.86920  0.23640  0.66290  1.0000
  C   C107      1.0  0.36920  0.76360  0.83710  1.0000
  C   C108      1.0  0.13080  0.23640  0.83710  1.0000
  C   C109      1.0  0.13080  0.26360  0.66290  1.0000
  C   C110      1.0  0.36920  0.73640  0.66290  1.0000
  C   C111      1.0  0.86920  0.26360  0.83710  1.0000
  C   C112      1.0  0.63080  0.73640  0.83710  1.0000
  C   C113      1.0  0.40570  0.41320  0.58292  1.0000
  C   C114      1.0  0.09430  0.58680  0.58292  1.0000
  C   C115      1.0  0.59430  0.41320  0.91708  1.0000
  C   C116      1.0  0.90570  0.58680  0.91708  1.0000
  C   C117      1.0  0.90570  0.91320  0.58292  1.0000
  C   C118      1.0  0.59430  0.08680  0.58292  1.0000
  C   C119      1.0  0.09430  0.91320  0.91708  1.0000
  C   C120      1.0  0.40570  0.08680  0.91708  1.0000
  C   C121      1.0  0.59430  0.58680  0.41708  1.0000
  C   C122      1.0  0.90570  0.41320  0.41708  1.0000
  C   C123      1.0  0.40570  0.58680  0.08292  1.0000
  C   C124      1.0  0.09430  0.41320  0.08292  1.0000
  C   C125      1.0  0.09430  0.08680  0.41708  1.0000
  C   C126      1.0  0.40570  0.91320  0.41708  1.0000
  C   C127      1.0  0.90570  0.08680  0.08292  1.0000
  C   C128      1.0  0.59430  0.91320  0.08292  1.0000
  C   C129      1.0  0.44480  0.38550  0.60037  1.0000
  C   C130      1.0  0.05520  0.61450  0.60037  1.0000
  C   C131      1.0  0.55520  0.38550  0.89963  1.0000
  C   C132      1.0  0.94480  0.61450  0.89963  1.0000
  C   C133      1.0  0.94480  0.88550  0.60037  1.0000
  C   C134      1.0  0.55520  0.11450  0.60037  1.0000
  C   C135      1.0  0.05520  0.88550  0.89963  1.0000
  C   C136      1.0  0.44480  0.11450  0.89963  1.0000
  C   C137      1.0  0.55520  0.61450  0.39963  1.0000
  C   C138      1.0  0.94480  0.38550  0.39963  1.0000
  C   C139      1.0  0.44480  0.61450  0.10037  1.0000
  C   C140      1.0  0.05520  0.38550  0.10037  1.0000
  C   C141      1.0  0.05520  0.11450  0.39963  1.0000
  C   C142      1.0  0.44480  0.88550  0.39963  1.0000
  C   C143      1.0  0.94480  0.11450  0.10037  1.0000
  C   C144      1.0  0.55520  0.88550  0.10037  1.0000
  C   C145      1.0  0.35940  0.35760  0.33277  1.0000
  C   C146      1.0  0.14060  0.64240  0.33277  1.0000
  C   C147      1.0  0.64060  0.35760  0.16723  1.0000
  C   C148      1.0  0.85940  0.64240  0.16723  1.0000
  C   C149      1.0  0.85940  0.85760  0.33277  1.0000
  C   C150      1.0  0.64060  0.14240  0.33277  1.0000
  C   C151      1.0  0.14060  0.85760  0.16723  1.0000
  C   C152      1.0  0.35940  0.14240  0.16723  1.0000
  C   C153      1.0  0.64060  0.64240  0.66723  1.0000
  C   C154      1.0  0.85940  0.35760  0.66723  1.0000
  C   C155      1.0  0.35940  0.64240  0.83277  1.0000
  C   C156      1.0  0.14060  0.35760  0.83277  1.0000
  C   C157      1.0  0.14060  0.14240  0.66723  1.0000
  C   C158      1.0  0.35940  0.85760  0.66723  1.0000
  C   C159      1.0  0.85940  0.14240  0.83277  1.0000
  C   C160      1.0  0.64060  0.85760  0.83277  1.0000
  H   H65       1.0  0.37111  0.39988  0.31513  1.0000
  H   H66       1.0  0.12889  0.60012  0.31513  1.0000
  H   H67       1.0  0.62889  0.39988  0.18487  1.0000
  H   H68       1.0  0.87111  0.60012  0.18487  1.0000
  H   H69       1.0  0.87111  0.89988  0.31513  1.0000
  H   H70       1.0  0.62889  0.10012  0.31513  1.0000
  H   H71       1.0  0.12889  0.89988  0.18487  1.0000
  H   H72       1.0  0.37111  0.10012  0.18487  1.0000
  H   H73       1.0  0.62889  0.60012  0.68487  1.0000
  H   H74       1.0  0.87111  0.39988  0.68487  1.0000
  H   H75       1.0  0.37111  0.60012  0.81513  1.0000
  H   H76       1.0  0.12889  0.39988  0.81513  1.0000
  H   H77       1.0  0.12889  0.10012  0.68487  1.0000
  H   H78       1.0  0.37111  0.89988  0.68487  1.0000
  H   H79       1.0  0.87111  0.10012  0.81513  1.0000
  H   H80       1.0  0.62889  0.89988  0.81513  1.0000
  O   O53       1.0  0.47830  0.45170  0.59674  1.0000
  O   O54       1.0  0.02170  0.54830  0.59674  1.0000
  O   O55       1.0  0.52170  0.45170  0.90326  1.0000
  O   O56       1.0  0.97830  0.54830  0.90326  1.0000
  O   O57       1.0  0.97830  0.95170  0.59674  1.0000
  O   O58       1.0  0.52170  0.04830  0.59674  1.0000
  O   O59       1.0  0.02170  0.95170  0.90326  1.0000
  O   O60       1.0  0.47830  0.04830  0.90326  1.0000
  O   O61       1.0  0.52170  0.54830  0.40326  1.0000
  O   O62       1.0  0.97830  0.45170  0.40326  1.0000
  O   O63       1.0  0.47830  0.54830  0.09674  1.0000
  O   O64       1.0  0.02170  0.45170  0.09674  1.0000
  O   O65       1.0  0.02170  0.04830  0.40326  1.0000
  O   O66       1.0  0.47830  0.95170  0.40326  1.0000
  O   O67       1.0  0.97830  0.04830  0.09674  1.0000
  O   O68       1.0  0.52170  0.95170  0.09674  1.0000
  C   C161      1.0  0.36920  0.35950  0.58857  1.0000
  C   C162      1.0  0.13080  0.64050  0.58857  1.0000
  C   C163      1.0  0.63080  0.35950  0.91143  1.0000
  C   C164      1.0  0.86920  0.64050  0.91143  1.0000
  C   C165      1.0  0.86920  0.85950  0.58857  1.0000
  C   C166      1.0  0.63080  0.14050  0.58857  1.0000
  C   C167      1.0  0.13080  0.85950  0.91143  1.0000
  C   C168      1.0  0.36920  0.14050  0.91143  1.0000
  C   C169      1.0  0.63080  0.64050  0.41143  1.0000
  C   C170      1.0  0.86920  0.35950  0.41143  1.0000
  C   C171      1.0  0.36920  0.64050  0.08857  1.0000
  C   C172      1.0  0.13080  0.35950  0.08857  1.0000
  C   C173      1.0  0.13080  0.14050  0.41143  1.0000
  C   C174      1.0  0.36920  0.85950  0.41143  1.0000
  C   C175      1.0  0.86920  0.14050  0.08857  1.0000
  C   C176      1.0  0.63080  0.85950  0.08857  1.0000
  H   H81       1.0  0.36770  0.29717  0.60432  1.0000
  H   H82       1.0  0.13230  0.70283  0.60432  1.0000
  H   H83       1.0  0.63230  0.29717  0.89568  1.0000
  H   H84       1.0  0.86770  0.70283  0.89568  1.0000
  H   H85       1.0  0.86770  0.79717  0.60432  1.0000
  H   H86       1.0  0.63230  0.20283  0.60432  1.0000
  H   H87       1.0  0.13230  0.79717  0.89568  1.0000
  H   H88       1.0  0.36770  0.20283  0.89568  1.0000
  H   H89       1.0  0.63230  0.70283  0.39568  1.0000
  H   H90       1.0  0.86770  0.29717  0.39568  1.0000
  H   H91       1.0  0.36770  0.70283  0.10432  1.0000
  H   H92       1.0  0.13230  0.29717  0.10432  1.0000
  H   H93       1.0  0.13230  0.20283  0.39568  1.0000
  H   H94       1.0  0.36770  0.79717  0.39568  1.0000
  H   H95       1.0  0.86770  0.20283  0.10432  1.0000
  H   H96       1.0  0.63230  0.79717  0.10432  1.0000
  C   C177      1.0  0.31590  0.36920  0.37747  1.0000
  C   C178      1.0  0.18410  0.63080  0.37747  1.0000
  C   C179      1.0  0.68410  0.36920  0.12253  1.0000
  C   C180      1.0  0.81590  0.63080  0.12253  1.0000
  C   C181      1.0  0.81590  0.86920  0.37747  1.0000
  C   C182      1.0  0.68410  0.13080  0.37747  1.0000
  C   C183      1.0  0.18410  0.86920  0.12253  1.0000
  C   C184      1.0  0.31590  0.13080  0.12253  1.0000
  C   C185      1.0  0.68410  0.63080  0.62253  1.0000
  C   C186      1.0  0.81590  0.36920  0.62253  1.0000
  C   C187      1.0  0.31590  0.63080  0.87747  1.0000
  C   C188      1.0  0.18410  0.36920  0.87747  1.0000
  C   C189      1.0  0.18410  0.13080  0.62253  1.0000
  C   C190      1.0  0.31590  0.86920  0.62253  1.0000
  C   C191      1.0  0.81590  0.13080  0.87747  1.0000
  C   C192      1.0  0.68410  0.86920  0.87747  1.0000
  C   C193      1.0  0.34950  0.17060  0.36150  1.0000
  C   C194      1.0  0.15050  0.82940  0.36150  1.0000
  C   C195      1.0  0.65050  0.17060  0.13850  1.0000
  C   C196      1.0  0.84950  0.82940  0.13850  1.0000
  C   C197      1.0  0.84950  0.67060  0.36150  1.0000
  C   C198      1.0  0.65050  0.32940  0.36150  1.0000
  C   C199      1.0  0.15050  0.67060  0.13850  1.0000
  C   C200      1.0  0.34950  0.32940  0.13850  1.0000
  C   C201      1.0  0.65050  0.82940  0.63850  1.0000
  C   C202      1.0  0.84950  0.17060  0.63850  1.0000
  C   C203      1.0  0.34950  0.82940  0.86150  1.0000
  C   C204      1.0  0.15050  0.17060  0.86150  1.0000
  C   C205      1.0  0.15050  0.32940  0.63850  1.0000
  C   C206      1.0  0.34950  0.67060  0.63850  1.0000
  C   C207      1.0  0.84950  0.32940  0.86150  1.0000
  C   C208      1.0  0.65050  0.67060  0.86150  1.0000
  H   H97       1.0  0.35443  0.08420  0.36440  1.0000
  H   H98       1.0  0.14557  0.91580  0.36440  1.0000
  H   H99       1.0  0.64557  0.08420  0.13560  1.0000
  H   H100      1.0  0.85443  0.91580  0.13560  1.0000
  H   H101      1.0  0.85443  0.58420  0.36440  1.0000
  H   H102      1.0  0.64557  0.41580  0.36440  1.0000
  H   H103      1.0  0.14557  0.58420  0.13560  1.0000
  H   H104      1.0  0.35443  0.41580  0.13560  1.0000
  H   H105      1.0  0.64557  0.91580  0.63560  1.0000
  H   H106      1.0  0.85443  0.08420  0.63560  1.0000
  H   H107      1.0  0.35443  0.91580  0.86440  1.0000
  H   H108      1.0  0.14557  0.08420  0.86440  1.0000
  H   H109      1.0  0.14557  0.41580  0.63560  1.0000
  H   H110      1.0  0.35443  0.58420  0.63560  1.0000
  H   H111      1.0  0.85443  0.41580  0.86440  1.0000
  H   H112      1.0  0.64557  0.58420  0.86440  1.0000
  C   C209      1.0  0.33340  0.42020  0.35274  1.0000
  C   C210      1.0  0.16660  0.57980  0.35274  1.0000
  C   C211      1.0  0.66660  0.42020  0.14726  1.0000
  C   C212      1.0  0.83340  0.57980  0.14726  1.0000
  C   C213      1.0  0.83340  0.92020  0.35274  1.0000
  C   C214      1.0  0.66660  0.07980  0.35274  1.0000
  C   C215      1.0  0.16660  0.92020  0.14726  1.0000
  C   C216      1.0  0.33340  0.07980  0.14726  1.0000
  C   C217      1.0  0.66660  0.57980  0.64726  1.0000
  C   C218      1.0  0.83340  0.42020  0.64726  1.0000
  C   C219      1.0  0.33340  0.57980  0.85274  1.0000
  C   C220      1.0  0.16660  0.42020  0.85274  1.0000
  C   C221      1.0  0.16660  0.07980  0.64726  1.0000
  C   C222      1.0  0.33340  0.92020  0.64726  1.0000
  C   C223      1.0  0.83340  0.07980  0.85274  1.0000
  C   C224      1.0  0.66660  0.92020  0.85274  1.0000
  H   H113      1.0  0.32753  0.50537  0.34861  1.0000
  H   H114      1.0  0.17247  0.49463  0.34861  1.0000
  H   H115      1.0  0.67247  0.50537  0.15139  1.0000
  H   H116      1.0  0.82753  0.49463  0.15139  1.0000
  H   H117      1.0  0.82753  0.00537  0.34861  1.0000
  H   H118      1.0  0.67247  0.99463  0.34861  1.0000
  H   H119      1.0  0.17247  0.00537  0.15139  1.0000
  H   H120      1.0  0.32753  0.99463  0.15139  1.0000
  H   H121      1.0  0.67247  0.49463  0.65139  1.0000
  H   H122      1.0  0.82753  0.50537  0.65139  1.0000
  H   H123      1.0  0.32753  0.49463  0.84861  1.0000
  H   H124      1.0  0.17247  0.50537  0.84861  1.0000
  H   H125      1.0  0.17247  0.99463  0.65139  1.0000
  H   H126      1.0  0.32753  0.00537  0.65139  1.0000
  H   H127      1.0  0.82753  0.99463  0.84861  1.0000
  H   H128      1.0  0.67247  0.00537  0.84861  1.0000
  C   C225      1.0  0.40530  0.50290  0.55990  1.0000
  C   C226      1.0  0.09470  0.49710  0.55990  1.0000
  C   C227      1.0  0.59470  0.50290  0.94010  1.0000
  C   C228      1.0  0.90530  0.49710  0.94010  1.0000
  C   C229      1.0  0.90530  0.00290  0.55990  1.0000
  C   C230      1.0  0.59470  0.99710  0.55990  1.0000
  C   C231      1.0  0.09470  0.00290  0.94010  1.0000
  C   C232      1.0  0.40530  0.99710  0.94010  1.0000
  C   C233      1.0  0.59470  0.49710  0.44010  1.0000
  C   C234      1.0  0.90530  0.50290  0.44010  1.0000
  C   C235      1.0  0.40530  0.49710  0.05990  1.0000
  C   C236      1.0  0.09470  0.50290  0.05990  1.0000
  C   C237      1.0  0.09470  0.99710  0.44010  1.0000
  C   C238      1.0  0.40530  0.00290  0.44010  1.0000
  C   C239      1.0  0.90530  0.99710  0.05990  1.0000
  C   C240      1.0  0.59470  0.00290  0.05990  1.0000
  H   H129      1.0  0.43082  0.54982  0.55572  1.0000
  H   H130      1.0  0.06918  0.45018  0.55572  1.0000
  H   H131      1.0  0.56918  0.54982  0.94428  1.0000
  H   H132      1.0  0.93082  0.45018  0.94428  1.0000
  H   H133      1.0  0.93082  0.04982  0.55572  1.0000
  H   H134      1.0  0.56918  0.95018  0.55572  1.0000
  H   H135      1.0  0.06918  0.04982  0.94428  1.0000
  H   H136      1.0  0.43082  0.95018  0.94428  1.0000
  H   H137      1.0  0.56918  0.45018  0.44428  1.0000
  H   H138      1.0  0.93082  0.54982  0.44428  1.0000
  H   H139      1.0  0.43082  0.45018  0.05572  1.0000
  H   H140      1.0  0.06918  0.54982  0.05572  1.0000
  H   H141      1.0  0.06918  0.95018  0.44428  1.0000
  H   H142      1.0  0.43082  0.04982  0.44428  1.0000
  H   H143      1.0  0.93082  0.95018  0.05572  1.0000
  H   H144      1.0  0.56918  0.04982  0.05572  1.0000
  C   C241      1.0  0.32190  0.23870  0.38174  1.0000
  C   C242      1.0  0.17810  0.76130  0.38174  1.0000
  C   C243      1.0  0.67810  0.23870  0.11826  1.0000
  C   C244      1.0  0.82190  0.76130  0.11826  1.0000
  C   C245      1.0  0.82190  0.73870  0.38174  1.0000
  C   C246      1.0  0.67810  0.26130  0.38174  1.0000
  C   C247      1.0  0.17810  0.73870  0.11826  1.0000
  C   C248      1.0  0.32190  0.26130  0.11826  1.0000
  C   C249      1.0  0.67810  0.76130  0.61826  1.0000
  C   C250      1.0  0.82190  0.23870  0.61826  1.0000
  C   C251      1.0  0.32190  0.76130  0.88174  1.0000
  C   C252      1.0  0.17810  0.23870  0.88174  1.0000
  C   C253      1.0  0.17810  0.26130  0.61826  1.0000
  C   C254      1.0  0.32190  0.73870  0.61826  1.0000
  C   C255      1.0  0.82190  0.26130  0.88174  1.0000
  C   C256      1.0  0.67810  0.73870  0.88174  1.0000
  H   H145      1.0  0.30720  0.19718  0.39832  1.0000
  H   H146      1.0  0.19280  0.80282  0.39832  1.0000
  H   H147      1.0  0.69280  0.19718  0.10168  1.0000
  H   H148      1.0  0.80720  0.80282  0.10168  1.0000
  H   H149      1.0  0.80720  0.69718  0.39832  1.0000
  H   H150      1.0  0.69280  0.30282  0.39832  1.0000
  H   H151      1.0  0.19280  0.69718  0.10168  1.0000
  H   H152      1.0  0.30720  0.30282  0.10168  1.0000
  H   H153      1.0  0.69280  0.80282  0.60168  1.0000
  H   H154      1.0  0.80720  0.19718  0.60168  1.0000
  H   H155      1.0  0.30720  0.80282  0.89832  1.0000
  H   H156      1.0  0.19280  0.19718  0.89832  1.0000
  H   H157      1.0  0.19280  0.30282  0.60168  1.0000
  H   H158      1.0  0.30720  0.69718  0.60168  1.0000
  H   H159      1.0  0.80720  0.30282  0.89832  1.0000
  H   H160      1.0  0.69280  0.69718  0.89832  1.0000
  C   C257      1.0  0.25000  0.50000  0.38150  1.0000
  C   C258      1.0  0.75000  0.50000  0.11850  1.0000
  C   C259      1.0  0.75000  0.00000  0.38150  1.0000
  C   C260      1.0  0.25000  0.00000  0.11850  1.0000
  C   C261      1.0  0.75000  0.50000  0.61850  1.0000
  C   C262      1.0  0.25000  0.50000  0.88150  1.0000
  C   C263      1.0  0.25000  0.00000  0.61850  1.0000
  C   C264      1.0  0.75000  0.00000  0.88150  1.0000
  H   H161      1.0  0.25000  0.50000  0.35920  1.0000
  H   H162      1.0  0.75000  0.50000  0.14080  1.0000
  H   H163      1.0  0.75000  0.00000  0.35920  1.0000
  H   H164      1.0  0.25000  0.00000  0.14080  1.0000
  H   H165      1.0  0.75000  0.50000  0.64080  1.0000
  H   H166      1.0  0.25000  0.50000  0.85920  1.0000
  H   H167      1.0  0.25000  0.00000  0.64080  1.0000
  H   H168      1.0  0.75000  0.00000  0.85920  1.0000
  C   C265      1.0  0.28536  0.44699  0.39766  1.0000
  C   C266      1.0  0.21464  0.55301  0.39766  1.0000
  C   C267      1.0  0.71464  0.44699  0.10234  1.0000
  C   C268      1.0  0.78536  0.55301  0.10234  1.0000
  C   C269      1.0  0.78536  0.94699  0.39766  1.0000
  C   C270      1.0  0.71464  0.05301  0.39766  1.0000
  C   C271      1.0  0.21464  0.94699  0.10234  1.0000
  C   C272      1.0  0.28536  0.05301  0.10234  1.0000
  C   C273      1.0  0.71464  0.55301  0.60234  1.0000
  C   C274      1.0  0.78536  0.44699  0.60234  1.0000
  C   C275      1.0  0.28536  0.55301  0.89766  1.0000
  C   C276      1.0  0.21464  0.44699  0.89766  1.0000
  C   C277      1.0  0.21464  0.05301  0.60234  1.0000
  C   C278      1.0  0.28536  0.94699  0.60234  1.0000
  C   C279      1.0  0.78536  0.05301  0.89766  1.0000
  C   C280      1.0  0.71464  0.94699  0.89766  1.0000
  C   C281      1.0  0.33130  0.39140  0.57186  1.0000
  C   C282      1.0  0.16870  0.60860  0.57186  1.0000
  C   C283      1.0  0.66870  0.39140  0.92814  1.0000
  C   C284      1.0  0.83130  0.60860  0.92814  1.0000
  C   C285      1.0  0.83130  0.89140  0.57186  1.0000
  C   C286      1.0  0.66870  0.10860  0.57186  1.0000
  C   C287      1.0  0.16870  0.89140  0.92814  1.0000
  C   C288      1.0  0.33130  0.10860  0.92814  1.0000
  C   C289      1.0  0.66870  0.60860  0.42814  1.0000
  C   C290      1.0  0.83130  0.39140  0.42814  1.0000
  C   C291      1.0  0.33130  0.60860  0.07186  1.0000
  C   C292      1.0  0.16870  0.39140  0.07186  1.0000
  C   C293      1.0  0.16870  0.10860  0.42814  1.0000
  C   C294      1.0  0.33130  0.89140  0.42814  1.0000
  C   C295      1.0  0.83130  0.10860  0.07186  1.0000
  C   C296      1.0  0.66870  0.89140  0.07186  1.0000
  H   H169      1.0  0.30474  0.36403  0.58087  1.0000
  H   H170      1.0  0.19526  0.63597  0.58087  1.0000
  H   H171      1.0  0.69526  0.36403  0.91913  1.0000
  H   H172      1.0  0.80474  0.63597  0.91913  1.0000
  H   H173      1.0  0.80474  0.86403  0.58087  1.0000
  H   H174      1.0  0.69526  0.13597  0.58087  1.0000
  H   H175      1.0  0.19526  0.86403  0.91913  1.0000
  H   H176      1.0  0.30474  0.13597  0.91913  1.0000
  H   H177      1.0  0.69526  0.63597  0.41913  1.0000
  H   H178      1.0  0.80474  0.36403  0.41913  1.0000
  H   H179      1.0  0.30474  0.63597  0.08087  1.0000
  H   H180      1.0  0.19526  0.36403  0.08087  1.0000
  H   H181      1.0  0.19526  0.13597  0.41913  1.0000
  H   H182      1.0  0.30474  0.86403  0.41913  1.0000
  H   H183      1.0  0.80474  0.13597  0.08087  1.0000
  H   H184      1.0  0.69526  0.86403  0.08087  1.0000
  C   C297      1.0  0.32056  0.39420  0.44723  1.0000
  C   C298      1.0  0.17944  0.60580  0.44723  1.0000
  C   C299      1.0  0.67944  0.39420  0.05277  1.0000
  C   C300      1.0  0.82056  0.60580  0.05277  1.0000
  C   C301      1.0  0.82056  0.89420  0.44723  1.0000
  C   C302      1.0  0.67944  0.10580  0.44723  1.0000
  C   C303      1.0  0.17944  0.89420  0.05277  1.0000
  C   C304      1.0  0.32056  0.10580  0.05277  1.0000
  C   C305      1.0  0.67944  0.60580  0.55277  1.0000
  C   C306      1.0  0.82056  0.39420  0.55277  1.0000
  C   C307      1.0  0.32056  0.60580  0.94723  1.0000
  C   C308      1.0  0.17944  0.39420  0.94723  1.0000
  C   C309      1.0  0.17944  0.10580  0.55277  1.0000
  C   C310      1.0  0.32056  0.89420  0.55277  1.0000
  C   C311      1.0  0.82056  0.10580  0.94723  1.0000
  C   C312      1.0  0.67944  0.89420  0.94723  1.0000
  H   H185      1.0  0.34431  0.35861  0.43617  1.0000
  H   H186      1.0  0.15569  0.64139  0.43617  1.0000
  H   H187      1.0  0.65569  0.35861  0.06383  1.0000
  H   H188      1.0  0.84431  0.64139  0.06383  1.0000
  H   H189      1.0  0.84431  0.85861  0.43617  1.0000
  H   H190      1.0  0.65569  0.14139  0.43617  1.0000
  H   H191      1.0  0.15569  0.85861  0.06383  1.0000
  H   H192      1.0  0.34431  0.14139  0.06383  1.0000
  H   H193      1.0  0.65569  0.64139  0.56383  1.0000
  H   H194      1.0  0.84431  0.35861  0.56383  1.0000
  H   H195      1.0  0.34431  0.64139  0.93617  1.0000
  H   H196      1.0  0.15569  0.35861  0.93617  1.0000
  H   H197      1.0  0.15569  0.14139  0.56383  1.0000
  H   H198      1.0  0.34431  0.85861  0.56383  1.0000
  H   H199      1.0  0.84431  0.14139  0.93617  1.0000
  H   H200      1.0  0.65569  0.85861  0.93617  1.0000
  C   C313      1.0  0.28599  0.44604  0.43078  1.0000
  C   C314      1.0  0.21401  0.55396  0.43078  1.0000
  C   C315      1.0  0.71401  0.44604  0.06922  1.0000
  C   C316      1.0  0.78599  0.55396  0.06922  1.0000
  C   C317      1.0  0.78599  0.94604  0.43078  1.0000
  C   C318      1.0  0.71401  0.05396  0.43078  1.0000
  C   C319      1.0  0.21401  0.94604  0.06922  1.0000
  C   C320      1.0  0.28599  0.05396  0.06922  1.0000
  C   C321      1.0  0.71401  0.55396  0.56922  1.0000
  C   C322      1.0  0.78599  0.44604  0.56922  1.0000
  C   C323      1.0  0.28599  0.55396  0.93078  1.0000
  C   C324      1.0  0.21401  0.44604  0.93078  1.0000
  C   C325      1.0  0.21401  0.05396  0.56922  1.0000
  C   C326      1.0  0.28599  0.94604  0.56922  1.0000
  C   C327      1.0  0.78599  0.05396  0.93078  1.0000
  C   C328      1.0  0.71401  0.94604  0.93078  1.0000
  C   C329      1.0  0.25030  0.49956  0.44696  1.0000
  C   C330      1.0  0.74970  0.49956  0.05304  1.0000
  C   C331      1.0  0.75030  0.99956  0.44696  1.0000
  C   C332      1.0  0.24970  0.99956  0.05304  1.0000
  C   C333      1.0  0.74970  0.50044  0.55304  1.0000
  C   C334      1.0  0.25030  0.50044  0.94696  1.0000
  C   C335      1.0  0.24970  0.00044  0.55304  1.0000
  C   C336      1.0  0.75030  0.00044  0.94696  1.0000
  C   C337      1.0  0.25028  0.49959  0.47960  1.0000
  C   C338      1.0  0.74972  0.49959  0.02040  1.0000
  C   C339      1.0  0.75028  0.99959  0.47960  1.0000
  C   C340      1.0  0.24972  0.99959  0.02040  1.0000
  C   C341      1.0  0.74972  0.50041  0.52040  1.0000
  C   C342      1.0  0.25028  0.50041  0.97960  1.0000
  C   C343      1.0  0.24972  0.00041  0.52040  1.0000
  C   C344      1.0  0.75028  0.00041  0.97960  1.0000
  C   C345      1.0  0.28561  0.44660  0.49605  1.0000
  C   C346      1.0  0.21439  0.55340  0.49605  1.0000
  C   C347      1.0  0.71439  0.44660  0.00395  1.0000
  C   C348      1.0  0.78561  0.55340  0.00395  1.0000
  C   C349      1.0  0.78561  0.94660  0.49605  1.0000
  C   C350      1.0  0.71439  0.05340  0.49605  1.0000
  C   C351      1.0  0.21439  0.94660  0.00395  1.0000
  C   C352      1.0  0.28561  0.05340  0.00395  1.0000
  C   C353      1.0  0.71439  0.55340  0.50395  1.0000
  C   C354      1.0  0.78561  0.44660  0.50395  1.0000
  C   C355      1.0  0.28561  0.55340  0.99605  1.0000
  C   C356      1.0  0.21439  0.44660  0.99605  1.0000
  C   C357      1.0  0.21439  0.05340  0.50395  1.0000
  C   C358      1.0  0.28561  0.94660  0.50395  1.0000
  C   C359      1.0  0.78561  0.05340  0.99605  1.0000
  C   C360      1.0  0.71439  0.94660  0.99605  1.0000
  C   C361      1.0  0.32037  0.39450  0.47986  1.0000
  C   C362      1.0  0.17963  0.60550  0.47986  1.0000
  C   C363      1.0  0.67963  0.39450  0.02014  1.0000
  C   C364      1.0  0.82037  0.60550  0.02014  1.0000
  C   C365      1.0  0.82037  0.89450  0.47986  1.0000
  C   C366      1.0  0.67963  0.10550  0.47986  1.0000
  C   C367      1.0  0.17963  0.89450  0.02014  1.0000
  C   C368      1.0  0.32037  0.10550  0.02014  1.0000
  C   C369      1.0  0.67963  0.60550  0.52014  1.0000
  C   C370      1.0  0.82037  0.39450  0.52014  1.0000
  C   C371      1.0  0.32037  0.60550  0.97986  1.0000
  C   C372      1.0  0.17963  0.39450  0.97986  1.0000
  C   C373      1.0  0.17963  0.10550  0.52014  1.0000
  C   C374      1.0  0.32037  0.89450  0.52014  1.0000
  C   C375      1.0  0.82037  0.10550  0.97986  1.0000
  C   C376      1.0  0.67963  0.89450  0.97986  1.0000
  H   H201      1.0  0.34399  0.35909  0.49110  1.0000
  H   H202      1.0  0.15601  0.64091  0.49110  1.0000
  H   H203      1.0  0.65601  0.35909  0.00890  1.0000
  H   H204      1.0  0.84399  0.64091  0.00890  1.0000
  H   H205      1.0  0.84399  0.85909  0.49110  1.0000
  H   H206      1.0  0.65601  0.14091  0.49110  1.0000
  H   H207      1.0  0.15601  0.85909  0.00890  1.0000
  H   H208      1.0  0.34399  0.14091  0.00890  1.0000
  H   H209      1.0  0.65601  0.64091  0.50890  1.0000
  H   H210      1.0  0.84399  0.35909  0.50890  1.0000
  H   H211      1.0  0.34399  0.64091  0.99110  1.0000
  H   H212      1.0  0.15601  0.35909  0.99110  1.0000
  H   H213      1.0  0.15601  0.14091  0.50890  1.0000
  H   H214      1.0  0.34399  0.85909  0.50890  1.0000
  H   H215      1.0  0.84399  0.14091  0.99110  1.0000
  H   H216      1.0  0.65601  0.85909  0.99110  1.0000
  C   C377      1.0  0.36660  0.52570  0.54240  1.0000
  C   C378      1.0  0.13340  0.47430  0.54240  1.0000
  C   C379      1.0  0.63340  0.52570  0.95760  1.0000
  C   C380      1.0  0.86660  0.47430  0.95760  1.0000
  C   C381      1.0  0.86660  0.02570  0.54240  1.0000
  C   C382      1.0  0.63340  0.97430  0.54240  1.0000
  C   C383      1.0  0.13340  0.02570  0.95760  1.0000
  C   C384      1.0  0.36660  0.97430  0.95760  1.0000
  C   C385      1.0  0.63340  0.47430  0.45760  1.0000
  C   C386      1.0  0.86660  0.52570  0.45760  1.0000
  C   C387      1.0  0.36660  0.47430  0.04240  1.0000
  C   C388      1.0  0.13340  0.52570  0.04240  1.0000
  C   C389      1.0  0.13340  0.97430  0.45760  1.0000
  C   C390      1.0  0.36660  0.02570  0.45760  1.0000
  C   C391      1.0  0.86660  0.97430  0.04240  1.0000
  C   C392      1.0  0.63340  0.02570  0.04240  1.0000
  H   H217      1.0  0.36569  0.59022  0.52723  1.0000
  H   H218      1.0  0.13431  0.40978  0.52723  1.0000
  H   H219      1.0  0.63431  0.59022  0.97277  1.0000
  H   H220      1.0  0.86569  0.40978  0.97277  1.0000
  H   H221      1.0  0.86569  0.09022  0.52723  1.0000
  H   H222      1.0  0.63431  0.90978  0.52723  1.0000
  H   H223      1.0  0.13431  0.09022  0.97277  1.0000
  H   H224      1.0  0.36569  0.90978  0.97277  1.0000
  H   H225      1.0  0.63431  0.40978  0.47277  1.0000
  H   H226      1.0  0.86569  0.59022  0.47277  1.0000
  H   H227      1.0  0.36569  0.40978  0.02723  1.0000
  H   H228      1.0  0.13431  0.59022  0.02723  1.0000
  H   H229      1.0  0.13431  0.90978  0.47277  1.0000
  H   H230      1.0  0.36569  0.09022  0.47277  1.0000
  H   H231      1.0  0.86569  0.90978  0.02723  1.0000
  H   H232      1.0  0.63431  0.09022  0.02723  1.0000
  C   C393      1.0  0.32810  0.44740  0.54829  1.0000
  C   C394      1.0  0.17190  0.55260  0.54829  1.0000
  C   C395      1.0  0.67190  0.44740  0.95171  1.0000
  C   C396      1.0  0.82810  0.55260  0.95171  1.0000
  C   C397      1.0  0.82810  0.94740  0.54829  1.0000
  C   C398      1.0  0.67190  0.05260  0.54829  1.0000
  C   C399      1.0  0.17190  0.94740  0.95171  1.0000
  C   C400      1.0  0.32810  0.05260  0.95171  1.0000
  C   C401      1.0  0.67190  0.55260  0.45171  1.0000
  C   C402      1.0  0.82810  0.44740  0.45171  1.0000
  C   C403      1.0  0.32810  0.55260  0.04829  1.0000
  C   C404      1.0  0.17190  0.44740  0.04829  1.0000
  C   C405      1.0  0.17190  0.05260  0.45171  1.0000
  C   C406      1.0  0.32810  0.94740  0.45171  1.0000
  C   C407      1.0  0.82810  0.05260  0.04829  1.0000
  C   C408      1.0  0.67190  0.94740  0.04829  1.0000
  C   C409      1.0  0.28519  0.44730  0.52915  1.0000
  C   C410      1.0  0.21481  0.55270  0.52915  1.0000
  C   C411      1.0  0.71481  0.44730  0.97085  1.0000
  C   C412      1.0  0.78519  0.55270  0.97085  1.0000
  C   C413      1.0  0.78519  0.94730  0.52915  1.0000
  C   C414      1.0  0.71481  0.05270  0.52915  1.0000
  C   C415      1.0  0.21481  0.94730  0.97085  1.0000
  C   C416      1.0  0.28519  0.05270  0.97085  1.0000
  C   C417      1.0  0.71481  0.55270  0.47085  1.0000
  C   C418      1.0  0.78519  0.44730  0.47085  1.0000
  C   C419      1.0  0.28519  0.55270  0.02915  1.0000
  C   C420      1.0  0.21481  0.44730  0.02915  1.0000
  C   C421      1.0  0.21481  0.05270  0.47085  1.0000
  C   C422      1.0  0.28519  0.94730  0.47085  1.0000
  C   C423      1.0  0.78519  0.05270  0.02915  1.0000
  C   C424      1.0  0.71481  0.94730  0.02915  1.0000
  C   C425      1.0  0.25000  0.50000  0.54520  1.0000
  C   C426      1.0  0.75000  0.50000  0.95480  1.0000
  C   C427      1.0  0.75000  0.00000  0.54520  1.0000
  C   C428      1.0  0.25000  0.00000  0.95480  1.0000
  C   C429      1.0  0.75000  0.50000  0.45480  1.0000
  C   C430      1.0  0.25000  0.50000  0.04520  1.0000
  C   C431      1.0  0.25000  0.00000  0.45480  1.0000
  C   C432      1.0  0.75000  0.00000  0.04520  1.0000
  H   H233      1.0  0.25000  0.50000  0.56747  1.0000
  H   H234      1.0  0.75000  0.50000  0.93253  1.0000
  H   H235      1.0  0.75000  0.00000  0.56747  1.0000
  H   H236      1.0  0.25000  0.00000  0.93253  1.0000
  H   H237      1.0  0.75000  0.50000  0.43253  1.0000
  H   H238      1.0  0.25000  0.50000  0.06747  1.0000
  H   H239      1.0  0.25000  0.00000  0.43253  1.0000
  H   H240      1.0  0.75000  0.00000  0.06747  1.0000
