data_image0
_chemical_formula_structural       Mg2O16N2C2H2C4H2C10H8
_chemical_formula_sum              "Mg2 O16 N2 C16 H12"
_cell_length_a       7.274
_cell_length_b       8.955
_cell_length_c       11.032
_cell_angle_alpha    74.722
_cell_angle_beta     74.713
_cell_angle_gamma    79.032

_space_group_name_H-M_alt    "P 1"
_space_group_IT_number       1

loop_
  _space_group_symop_operation_xyz
  'x, y, z'

loop_
  _atom_site_type_symbol
  _atom_site_label
  _atom_site_symmetry_multiplicity
  _atom_site_fract_x
  _atom_site_fract_y
  _atom_site_fract_z
  _atom_site_occupancy
  Mg  Mg1       1.0  0.70669  0.36294  0.67703  1.0000
  Mg  Mg2       1.0  0.29331  0.63706  0.32297  1.0000
  O   O1        1.0  0.74670  0.34690  0.47290  1.0000
  O   O2        1.0  0.25330  0.65310  0.52710  1.0000
  O   O3        1.0  0.76350  0.18970  0.34100  1.0000
  O   O4        1.0  0.23650  0.81030  0.65900  1.0000
  O   O5        1.0  0.00300  0.34500  0.65750  1.0000
  O   O6        1.0  0.99700  0.65500  0.34250  1.0000
  O   O7        1.0  0.70970  0.22380  0.87600  1.0000
  O   O8        1.0  0.29030  0.77620  0.12400  1.0000
  O   O9        1.0  0.72420  0.60850  0.57630  1.0000
  O   O10       1.0  0.27580  0.39150  0.42370  1.0000
  O   O11       1.0  0.73240  0.98100  0.00130  1.0000
  O   O12       1.0  0.26760  0.01900  0.99870  1.0000
  O   O13       1.0  0.62550  0.55390  0.78670  1.0000
  O   O14       1.0  0.37450  0.44610  0.21330  1.0000
  O   O15       1.0  0.41350  0.38700  0.68820  1.0000
  O   O16       1.0  0.58650  0.61300  0.31180  1.0000
  N   N1        1.0  0.71700  0.12140  0.67630  1.0000
  N   N2        1.0  0.28300  0.87860  0.32370  1.0000
  C   C1        1.0  0.67920  0.86010  0.79600  1.0000
  C   C2        1.0  0.32080  0.13990  0.20400  1.0000
  H   H1        1.0  0.66300  0.78820  0.87480  1.0000
  H   H2        1.0  0.33700  0.21180  0.12520  1.0000
  C   C3        1.0  0.74620  0.21580  0.44950  1.0000
  C   C4        1.0  0.25380  0.78420  0.55050  1.0000
  C   C5        1.0  0.70810  0.92840  0.56560  1.0000
  C   C6        1.0  0.29190  0.07160  0.43440  1.0000
  H   H3        1.0  0.71550  0.90130  0.48850  1.0000
  H   H4        1.0  0.28450  0.09870  0.51150  1.0000
  C   C7        1.0  0.72130  0.08160  0.56670  1.0000
  C   C8        1.0  0.27870  0.91840  0.43330  1.0000
  C   C9        1.0  0.68380  0.81720  0.68120  1.0000
  C   C10       1.0  0.31620  0.18280  0.31880  1.0000
  C   C11       1.0  0.71170  0.07710  0.89950  1.0000
  C   C12       1.0  0.28830  0.92290  0.10050  1.0000
  C   C13       1.0  0.67620  0.65030  0.68210  1.0000
  C   C14       1.0  0.32380  0.34970  0.31790  1.0000
  C   C15       1.0  0.69960  0.01330  0.78710  1.0000
  C   C16       1.0  0.30040  0.98670  0.21290  1.0000
  H   H5        1.0  0.37500  0.46400  0.63700  1.0000
  H   H6        1.0  0.62500  0.53600  0.36300  1.0000
  H   H7        1.0  0.07600  0.35700  0.58700  1.0000
  H   H8        1.0  0.92400  0.64300  0.41300  1.0000
  H   H9        1.0  0.35700  0.31700  0.68700  1.0000
  H   H10       1.0  0.64300  0.68300  0.31300  1.0000
  H   H11       1.0  0.05600  0.26200  0.69200  1.0000
  H   H12       1.0  0.94400  0.73800  0.30800  1.0000
