data_image0
_chemical_formula_structural       C54H18C36H18C36H18C54H18C36H18C36H18C36H18C36H18C36H18C36H18C36O144Zn18
_chemical_formula_sum              "C432 H180 O144 Zn18"
_cell_length_a       28.707
_cell_length_b       28.707
_cell_length_c       24.682
_cell_angle_alpha    90
_cell_angle_beta     90
_cell_angle_gamma    120

_space_group_name_H-M_alt    "P 1"
_space_group_IT_number       1

loop_
  _space_group_symop_operation_xyz
  'x, y, z'

loop_
  _atom_site_type_symbol
  _atom_site_label
  _atom_site_symmetry_multiplicity
  _atom_site_fract_x
  _atom_site_fract_y
  _atom_site_fract_z
  _atom_site_occupancy
  C   C1        1.0  0.29930  0.27678  0.01050  1.0000
  C   C2        1.0  0.72322  0.02252  0.01050  1.0000
  C   C3        1.0  0.97748  0.70070  0.01050  1.0000
  C   C4        1.0  0.96597  0.61011  0.34383  1.0000
  C   C5        1.0  0.38989  0.35585  0.34383  1.0000
  C   C6        1.0  0.64415  0.03403  0.34383  1.0000
  C   C7        1.0  0.63263  0.94345  0.67717  1.0000
  C   C8        1.0  0.05655  0.68919  0.67717  1.0000
  C   C9        1.0  0.31081  0.36737  0.67717  1.0000
  C   C10       1.0  0.70070  0.72322  0.98950  1.0000
  C   C11       1.0  0.27678  0.97748  0.98950  1.0000
  C   C12       1.0  0.02252  0.29930  0.98950  1.0000
  C   C13       1.0  0.03403  0.38989  0.65617  1.0000
  C   C14       1.0  0.61011  0.64415  0.65617  1.0000
  C   C15       1.0  0.35585  0.96597  0.65617  1.0000
  C   C16       1.0  0.36737  0.05655  0.32283  1.0000
  C   C17       1.0  0.94345  0.31081  0.32283  1.0000
  C   C18       1.0  0.68919  0.63263  0.32283  1.0000
  C   C19       1.0  0.29605  0.22316  0.00486  1.0000
  C   C20       1.0  0.77684  0.07289  0.00486  1.0000
  C   C21       1.0  0.92711  0.70395  0.00486  1.0000
  C   C22       1.0  0.96272  0.55649  0.33819  1.0000
  C   C23       1.0  0.44351  0.40622  0.33819  1.0000
  C   C24       1.0  0.59378  0.03728  0.33819  1.0000
  C   C25       1.0  0.62938  0.88983  0.67153  1.0000
  C   C26       1.0  0.11017  0.73956  0.67153  1.0000
  C   C27       1.0  0.26044  0.37062  0.67153  1.0000
  C   C28       1.0  0.70395  0.77684  0.99514  1.0000
  C   C29       1.0  0.22316  0.92711  0.99514  1.0000
  C   C30       1.0  0.07289  0.29605  0.99514  1.0000
  C   C31       1.0  0.03728  0.44351  0.66181  1.0000
  C   C32       1.0  0.55649  0.59378  0.66181  1.0000
  C   C33       1.0  0.40622  0.96272  0.66181  1.0000
  C   C34       1.0  0.37062  0.11017  0.32847  1.0000
  C   C35       1.0  0.88983  0.26044  0.32847  1.0000
  C   C36       1.0  0.73956  0.62938  0.32847  1.0000
  C   C37       1.0  0.33994  0.22075  0.98590  1.0000
  C   C38       1.0  0.77925  0.11919  0.98590  1.0000
  C   C39       1.0  0.88081  0.66006  0.98590  1.0000
  C   C40       1.0  0.00661  0.55408  0.31923  1.0000
  C   C41       1.0  0.44592  0.45252  0.31923  1.0000
  C   C42       1.0  0.54748  0.99339  0.31923  1.0000
  C   C43       1.0  0.67327  0.88742  0.65257  1.0000
  C   C44       1.0  0.11258  0.78586  0.65257  1.0000
  C   C45       1.0  0.21414  0.32673  0.65257  1.0000
  C   C46       1.0  0.66006  0.77925  0.01410  1.0000
  C   C47       1.0  0.22075  0.88081  0.01410  1.0000
  C   C48       1.0  0.11919  0.33994  0.01410  1.0000
  C   C49       1.0  0.99339  0.44592  0.68077  1.0000
  C   C50       1.0  0.55408  0.54748  0.68077  1.0000
  C   C51       1.0  0.45252  0.00661  0.68077  1.0000
  C   C52       1.0  0.32673  0.11258  0.34743  1.0000
  C   C53       1.0  0.88742  0.21414  0.34743  1.0000
  C   C54       1.0  0.78586  0.67327  0.34743  1.0000
  H   H1        1.0  0.37000  0.25200  0.97380  1.0000
  H   H2        1.0  0.74800  0.11800  0.97380  1.0000
  H   H3        1.0  0.88200  0.63000  0.97380  1.0000
  H   H4        1.0  0.03667  0.58533  0.30713  1.0000
  H   H5        1.0  0.41467  0.45133  0.30713  1.0000
  H   H6        1.0  0.54867  0.96333  0.30713  1.0000
  H   H7        1.0  0.70333  0.91867  0.64047  1.0000
  H   H8        1.0  0.08133  0.78467  0.64047  1.0000
  H   H9        1.0  0.21533  0.29667  0.64047  1.0000
  H   H10       1.0  0.63000  0.74800  0.02620  1.0000
  H   H11       1.0  0.25200  0.88200  0.02620  1.0000
  H   H12       1.0  0.11800  0.37000  0.02620  1.0000
  H   H13       1.0  0.96333  0.41467  0.69287  1.0000
  H   H14       1.0  0.58533  0.54867  0.69287  1.0000
  H   H15       1.0  0.45133  0.03667  0.69287  1.0000
  H   H16       1.0  0.29667  0.08133  0.35953  1.0000
  H   H17       1.0  0.91867  0.21533  0.35953  1.0000
  H   H18       1.0  0.78467  0.70333  0.35953  1.0000
  C   C55       1.0  0.33983  0.17285  0.98460  1.0000
  C   C56       1.0  0.82715  0.16698  0.98460  1.0000
  C   C57       1.0  0.83302  0.66017  0.98460  1.0000
  C   C58       1.0  0.00650  0.50618  0.31793  1.0000
  C   C59       1.0  0.49382  0.50031  0.31793  1.0000
  C   C60       1.0  0.49969  0.99350  0.31793  1.0000
  C   C61       1.0  0.67316  0.83952  0.65127  1.0000
  C   C62       1.0  0.16048  0.83365  0.65127  1.0000
  C   C63       1.0  0.16635  0.32684  0.65127  1.0000
  C   C64       1.0  0.66017  0.82715  0.01540  1.0000
  C   C65       1.0  0.17285  0.83302  0.01540  1.0000
  C   C66       1.0  0.16698  0.33983  0.01540  1.0000
  C   C67       1.0  0.99350  0.49382  0.68207  1.0000
  C   C68       1.0  0.50618  0.49969  0.68207  1.0000
  C   C69       1.0  0.50031  0.00650  0.68207  1.0000
  C   C70       1.0  0.32684  0.16048  0.34873  1.0000
  C   C71       1.0  0.83952  0.16635  0.34873  1.0000
  C   C72       1.0  0.83365  0.67316  0.34873  1.0000
  C   C73       1.0  0.29397  0.12706  0.00220  1.0000
  C   C74       1.0  0.87294  0.16691  0.00220  1.0000
  C   C75       1.0  0.83309  0.70603  0.00220  1.0000
  C   C76       1.0  0.96064  0.46039  0.33553  1.0000
  C   C77       1.0  0.53961  0.50024  0.33553  1.0000
  C   C78       1.0  0.49976  0.03936  0.33553  1.0000
  C   C79       1.0  0.62730  0.79373  0.66887  1.0000
  C   C80       1.0  0.20627  0.83358  0.66887  1.0000
  C   C81       1.0  0.16642  0.37270  0.66887  1.0000
  C   C82       1.0  0.70603  0.87294  0.99780  1.0000
  C   C83       1.0  0.12706  0.83309  0.99780  1.0000
  C   C84       1.0  0.16691  0.29397  0.99780  1.0000
  C   C85       1.0  0.03936  0.53961  0.66447  1.0000
  C   C86       1.0  0.46039  0.49976  0.66447  1.0000
  C   C87       1.0  0.50024  0.96064  0.66447  1.0000
  C   C88       1.0  0.37270  0.20627  0.33113  1.0000
  C   C89       1.0  0.79373  0.16642  0.33113  1.0000
  C   C90       1.0  0.83358  0.62730  0.33113  1.0000
  H   H19       1.0  0.29330  0.09440  0.00060  1.0000
  H   H20       1.0  0.90560  0.19890  0.00060  1.0000
  H   H21       1.0  0.80110  0.70670  0.00060  1.0000
  H   H22       1.0  0.95997  0.42773  0.33393  1.0000
  H   H23       1.0  0.57227  0.53223  0.33393  1.0000
  H   H24       1.0  0.46777  0.04003  0.33393  1.0000
  H   H25       1.0  0.62663  0.76107  0.66727  1.0000
  H   H26       1.0  0.23893  0.86557  0.66727  1.0000
  H   H27       1.0  0.13443  0.37337  0.66727  1.0000
  H   H28       1.0  0.70670  0.90560  0.99940  1.0000
  H   H29       1.0  0.09440  0.80110  0.99940  1.0000
  H   H30       1.0  0.19890  0.29330  0.99940  1.0000
  H   H31       1.0  0.04003  0.57227  0.66607  1.0000
  H   H32       1.0  0.42773  0.46777  0.66607  1.0000
  H   H33       1.0  0.53223  0.95997  0.66607  1.0000
  H   H34       1.0  0.37337  0.23893  0.33273  1.0000
  H   H35       1.0  0.76107  0.13443  0.33273  1.0000
  H   H36       1.0  0.86557  0.62663  0.33273  1.0000
  C   C91       1.0  0.24942  0.12752  0.02193  1.0000
  C   C92       1.0  0.87248  0.12190  0.02193  1.0000
  C   C93       1.0  0.87810  0.75058  0.02193  1.0000
  C   C94       1.0  0.91609  0.46085  0.35526  1.0000
  C   C95       1.0  0.53915  0.45523  0.35526  1.0000
  C   C96       1.0  0.54477  0.08391  0.35526  1.0000
  C   C97       1.0  0.58275  0.79419  0.68860  1.0000
  C   C98       1.0  0.20581  0.78857  0.68860  1.0000
  C   C99       1.0  0.21143  0.41725  0.68860  1.0000
  C   C100      1.0  0.75058  0.87248  0.97807  1.0000
  C   C101      1.0  0.12752  0.87810  0.97807  1.0000
  C   C102      1.0  0.12190  0.24942  0.97807  1.0000
  C   C103      1.0  0.08391  0.53915  0.64474  1.0000
  C   C104      1.0  0.46085  0.54477  0.64474  1.0000
  C   C105      1.0  0.45523  0.91609  0.64474  1.0000
  C   C106      1.0  0.41725  0.20581  0.31140  1.0000
  C   C107      1.0  0.79419  0.21143  0.31140  1.0000
  C   C108      1.0  0.78857  0.58275  0.31140  1.0000
  C   C109      1.0  0.25127  0.17667  0.02274  1.0000
  C   C110      1.0  0.82333  0.07460  0.02274  1.0000
  C   C111      1.0  0.92540  0.74873  0.02274  1.0000
  C   C112      1.0  0.91794  0.51000  0.35607  1.0000
  C   C113      1.0  0.49000  0.40793  0.35607  1.0000
  C   C114      1.0  0.59207  0.08206  0.35607  1.0000
  C   C115      1.0  0.58460  0.84334  0.68941  1.0000
  C   C116      1.0  0.15666  0.74127  0.68941  1.0000
  C   C117      1.0  0.25873  0.41540  0.68941  1.0000
  C   C118      1.0  0.74873  0.82333  0.97726  1.0000
  C   C119      1.0  0.17667  0.92540  0.97726  1.0000
  C   C120      1.0  0.07460  0.25127  0.97726  1.0000
  C   C121      1.0  0.08206  0.49000  0.64393  1.0000
  C   C122      1.0  0.51000  0.59207  0.64393  1.0000
  C   C123      1.0  0.40793  0.91794  0.64393  1.0000
  C   C124      1.0  0.41540  0.15666  0.31059  1.0000
  C   C125      1.0  0.84334  0.25873  0.31059  1.0000
  C   C126      1.0  0.74127  0.58460  0.31059  1.0000
  H   H37       1.0  0.22170  0.17840  0.03560  1.0000
  H   H38       1.0  0.82160  0.04330  0.03560  1.0000
  H   H39       1.0  0.95670  0.77830  0.03560  1.0000
  H   H40       1.0  0.88837  0.51173  0.36893  1.0000
  H   H41       1.0  0.48827  0.37663  0.36893  1.0000
  H   H42       1.0  0.62337  0.11163  0.36893  1.0000
  H   H43       1.0  0.55503  0.84507  0.70227  1.0000
  H   H44       1.0  0.15493  0.70997  0.70227  1.0000
  H   H45       1.0  0.29003  0.44497  0.70227  1.0000
  H   H46       1.0  0.77830  0.82160  0.96440  1.0000
  H   H47       1.0  0.17840  0.95670  0.96440  1.0000
  H   H48       1.0  0.04330  0.22170  0.96440  1.0000
  H   H49       1.0  0.11163  0.48827  0.63107  1.0000
  H   H50       1.0  0.51173  0.62337  0.63107  1.0000
  H   H51       1.0  0.37663  0.88837  0.63107  1.0000
  H   H52       1.0  0.44497  0.15493  0.29773  1.0000
  H   H53       1.0  0.84507  0.29003  0.29773  1.0000
  H   H54       1.0  0.70997  0.55503  0.29773  1.0000
  C   C127      1.0  0.38920  0.17100  0.96930  1.0000
  C   C128      1.0  0.82900  0.21820  0.96930  1.0000
  C   C129      1.0  0.78180  0.61080  0.96930  1.0000
  C   C130      1.0  0.05587  0.50433  0.30263  1.0000
  C   C131      1.0  0.49567  0.55153  0.30263  1.0000
  C   C132      1.0  0.44847  0.94413  0.30263  1.0000
  C   C133      1.0  0.72253  0.83767  0.63597  1.0000
  C   C134      1.0  0.16233  0.88487  0.63597  1.0000
  C   C135      1.0  0.11513  0.27747  0.63597  1.0000
  C   C136      1.0  0.61080  0.82900  0.03070  1.0000
  C   C137      1.0  0.17100  0.78180  0.03070  1.0000
  C   C138      1.0  0.21820  0.38920  0.03070  1.0000
  C   C139      1.0  0.94413  0.49567  0.69737  1.0000
  C   C140      1.0  0.50433  0.44847  0.69737  1.0000
  C   C141      1.0  0.55153  0.05587  0.69737  1.0000
  C   C142      1.0  0.27747  0.16233  0.36403  1.0000
  C   C143      1.0  0.83767  0.11513  0.36403  1.0000
  C   C144      1.0  0.88487  0.72253  0.36403  1.0000
  C   C145      1.0  0.20390  0.07852  0.04599  1.0000
  C   C146      1.0  0.92148  0.12538  0.04599  1.0000
  C   C147      1.0  0.87462  0.79610  0.04599  1.0000
  C   C148      1.0  0.87057  0.41185  0.37932  1.0000
  C   C149      1.0  0.58815  0.45871  0.37932  1.0000
  C   C150      1.0  0.54129  0.12943  0.37932  1.0000
  C   C151      1.0  0.53723  0.74519  0.71266  1.0000
  C   C152      1.0  0.25481  0.79205  0.71266  1.0000
  C   C153      1.0  0.20795  0.46277  0.71266  1.0000
  C   C154      1.0  0.79610  0.92148  0.95401  1.0000
  C   C155      1.0  0.07852  0.87462  0.95401  1.0000
  C   C156      1.0  0.12538  0.20390  0.95401  1.0000
  C   C157      1.0  0.12943  0.58815  0.62068  1.0000
  C   C158      1.0  0.41185  0.54129  0.62068  1.0000
  C   C159      1.0  0.45871  0.87057  0.62068  1.0000
  C   C160      1.0  0.46277  0.25481  0.28734  1.0000
  C   C161      1.0  0.74519  0.20795  0.28734  1.0000
  C   C162      1.0  0.79205  0.53723  0.28734  1.0000
  C   C163      1.0  0.21409  0.04205  0.07147  1.0000
  C   C164      1.0  0.95795  0.17204  0.07147  1.0000
  C   C165      1.0  0.82796  0.78591  0.07147  1.0000
  C   C166      1.0  0.88076  0.37538  0.40480  1.0000
  C   C167      1.0  0.62462  0.50537  0.40480  1.0000
  C   C168      1.0  0.49463  0.11924  0.40480  1.0000
  C   C169      1.0  0.54742  0.70872  0.73814  1.0000
  C   C170      1.0  0.29128  0.83871  0.73814  1.0000
  C   C171      1.0  0.16129  0.45258  0.73814  1.0000
  C   C172      1.0  0.78591  0.95795  0.92853  1.0000
  C   C173      1.0  0.04205  0.82796  0.92853  1.0000
  C   C174      1.0  0.17204  0.21409  0.92853  1.0000
  C   C175      1.0  0.11924  0.62462  0.59520  1.0000
  C   C176      1.0  0.37538  0.49463  0.59520  1.0000
  C   C177      1.0  0.50537  0.88076  0.59520  1.0000
  C   C178      1.0  0.45258  0.29128  0.26186  1.0000
  C   C179      1.0  0.70872  0.16129  0.26186  1.0000
  C   C180      1.0  0.83871  0.54742  0.26186  1.0000
  H   H55       1.0  0.24910  0.04820  0.07160  1.0000
  H   H56       1.0  0.95180  0.20090  0.07160  1.0000
  H   H57       1.0  0.79910  0.75090  0.07160  1.0000
  H   H58       1.0  0.91577  0.38153  0.40493  1.0000
  H   H59       1.0  0.61847  0.53423  0.40493  1.0000
  H   H60       1.0  0.46577  0.08423  0.40493  1.0000
  H   H61       1.0  0.58243  0.71487  0.73827  1.0000
  H   H62       1.0  0.28513  0.86757  0.73827  1.0000
  H   H63       1.0  0.13243  0.41757  0.73827  1.0000
  H   H64       1.0  0.75090  0.95180  0.92840  1.0000
  H   H65       1.0  0.04820  0.79910  0.92840  1.0000
  H   H66       1.0  0.20090  0.24910  0.92840  1.0000
  H   H67       1.0  0.08423  0.61847  0.59507  1.0000
  H   H68       1.0  0.38153  0.46577  0.59507  1.0000
  H   H69       1.0  0.53423  0.91577  0.59507  1.0000
  H   H70       1.0  0.41757  0.28513  0.26173  1.0000
  H   H71       1.0  0.71487  0.13243  0.26173  1.0000
  H   H72       1.0  0.86757  0.58243  0.26173  1.0000
  C   C181      1.0  0.17501  0.99706  0.09665  1.0000
  C   C182      1.0  0.00294  0.17795  0.09665  1.0000
  C   C183      1.0  0.82205  0.82499  0.09665  1.0000
  C   C184      1.0  0.84168  0.33039  0.42998  1.0000
  C   C185      1.0  0.66961  0.51128  0.42998  1.0000
  C   C186      1.0  0.48872  0.15832  0.42998  1.0000
  C   C187      1.0  0.50834  0.66373  0.76332  1.0000
  C   C188      1.0  0.33627  0.84462  0.76332  1.0000
  C   C189      1.0  0.15538  0.49166  0.76332  1.0000
  C   C190      1.0  0.82499  0.00294  0.90335  1.0000
  C   C191      1.0  0.99706  0.82205  0.90335  1.0000
  C   C192      1.0  0.17795  0.17501  0.90335  1.0000
  C   C193      1.0  0.15832  0.66961  0.57002  1.0000
  C   C194      1.0  0.33039  0.48872  0.57002  1.0000
  C   C195      1.0  0.51128  0.84168  0.57002  1.0000
  C   C196      1.0  0.49166  0.33627  0.23668  1.0000
  C   C197      1.0  0.66373  0.15538  0.23668  1.0000
  C   C198      1.0  0.84462  0.50834  0.23668  1.0000
  C   C199      1.0  0.12291  0.98743  0.09580  1.0000
  C   C200      1.0  0.01257  0.13548  0.09580  1.0000
  C   C201      1.0  0.86452  0.87709  0.09580  1.0000
  C   C202      1.0  0.78958  0.32076  0.42913  1.0000
  C   C203      1.0  0.67924  0.46881  0.42913  1.0000
  C   C204      1.0  0.53119  0.21042  0.42913  1.0000
  C   C205      1.0  0.45624  0.65410  0.76247  1.0000
  C   C206      1.0  0.34590  0.80215  0.76247  1.0000
  C   C207      1.0  0.19785  0.54376  0.76247  1.0000
  C   C208      1.0  0.87709  0.01257  0.90420  1.0000
  C   C209      1.0  0.98743  0.86452  0.90420  1.0000
  C   C210      1.0  0.13548  0.12291  0.90420  1.0000
  C   C211      1.0  0.21042  0.67924  0.57087  1.0000
  C   C212      1.0  0.32076  0.53119  0.57087  1.0000
  C   C213      1.0  0.46881  0.78958  0.57087  1.0000
  C   C214      1.0  0.54376  0.34590  0.23753  1.0000
  C   C215      1.0  0.65410  0.19785  0.23753  1.0000
  C   C216      1.0  0.80215  0.45624  0.23753  1.0000
  H   H73       1.0  0.09590  0.95700  0.11290  1.0000
  H   H74       1.0  0.04300  0.13890  0.11290  1.0000
  H   H75       1.0  0.86110  0.90410  0.11290  1.0000
  H   H76       1.0  0.76257  0.29033  0.44623  1.0000
  H   H77       1.0  0.70967  0.47223  0.44623  1.0000
  H   H78       1.0  0.52777  0.23743  0.44623  1.0000
  H   H79       1.0  0.42923  0.62367  0.77957  1.0000
  H   H80       1.0  0.37633  0.80557  0.77957  1.0000
  H   H81       1.0  0.19443  0.57077  0.77957  1.0000
  H   H82       1.0  0.90410  0.04300  0.88710  1.0000
  H   H83       1.0  0.95700  0.86110  0.88710  1.0000
  H   H84       1.0  0.13890  0.09590  0.88710  1.0000
  H   H85       1.0  0.23743  0.70967  0.55377  1.0000
  H   H86       1.0  0.29033  0.52777  0.55377  1.0000
  H   H87       1.0  0.47223  0.76257  0.55377  1.0000
  H   H88       1.0  0.57077  0.37633  0.22043  1.0000
  H   H89       1.0  0.62367  0.19443  0.22043  1.0000
  H   H90       1.0  0.80557  0.42923  0.22043  1.0000
  C   C217      1.0  0.10999  0.02274  0.06968  1.0000
  C   C218      1.0  0.97726  0.08725  0.06968  1.0000
  C   C219      1.0  0.91275  0.89001  0.06968  1.0000
  C   C220      1.0  0.77666  0.35607  0.40301  1.0000
  C   C221      1.0  0.64393  0.42058  0.40301  1.0000
  C   C222      1.0  0.57942  0.22334  0.40301  1.0000
  C   C223      1.0  0.44332  0.68941  0.73635  1.0000
  C   C224      1.0  0.31059  0.75392  0.73635  1.0000
  C   C225      1.0  0.24608  0.55668  0.73635  1.0000
  C   C226      1.0  0.89001  0.97726  0.93032  1.0000
  C   C227      1.0  0.02274  0.91275  0.93032  1.0000
  C   C228      1.0  0.08725  0.10999  0.93032  1.0000
  C   C229      1.0  0.22334  0.64393  0.59699  1.0000
  C   C230      1.0  0.35607  0.57942  0.59699  1.0000
  C   C231      1.0  0.42058  0.77666  0.59699  1.0000
  C   C232      1.0  0.55668  0.31059  0.26365  1.0000
  C   C233      1.0  0.68941  0.24608  0.26365  1.0000
  C   C234      1.0  0.75392  0.44332  0.26365  1.0000
  C   C235      1.0  0.15057  0.06750  0.04493  1.0000
  C   C236      1.0  0.93250  0.08307  0.04493  1.0000
  C   C237      1.0  0.91693  0.84943  0.04493  1.0000
  C   C238      1.0  0.81724  0.40083  0.37826  1.0000
  C   C239      1.0  0.59917  0.41640  0.37826  1.0000
  C   C240      1.0  0.58360  0.18276  0.37826  1.0000
  C   C241      1.0  0.48390  0.73417  0.71160  1.0000
  C   C242      1.0  0.26583  0.74974  0.71160  1.0000
  C   C243      1.0  0.25026  0.51610  0.71160  1.0000
  C   C244      1.0  0.84943  0.93250  0.95507  1.0000
  C   C245      1.0  0.06750  0.91693  0.95507  1.0000
  C   C246      1.0  0.08307  0.15057  0.95507  1.0000
  C   C247      1.0  0.18276  0.59917  0.62174  1.0000
  C   C248      1.0  0.40083  0.58360  0.62174  1.0000
  C   C249      1.0  0.41640  0.81724  0.62174  1.0000
  C   C250      1.0  0.51610  0.26583  0.28840  1.0000
  C   C251      1.0  0.73417  0.25026  0.28840  1.0000
  C   C252      1.0  0.74974  0.48390  0.28840  1.0000
  H   H91       1.0  0.14240  0.09110  0.02700  1.0000
  H   H92       1.0  0.90890  0.05130  0.02700  1.0000
  H   H93       1.0  0.94870  0.85760  0.02700  1.0000
  H   H94       1.0  0.80907  0.42443  0.36033  1.0000
  H   H95       1.0  0.57557  0.38463  0.36033  1.0000
  H   H96       1.0  0.61537  0.19093  0.36033  1.0000
  H   H97       1.0  0.47573  0.75777  0.69367  1.0000
  H   H98       1.0  0.24223  0.71797  0.69367  1.0000
  H   H99       1.0  0.28203  0.52427  0.69367  1.0000
  H   H100      1.0  0.85760  0.90890  0.97300  1.0000
  H   H101      1.0  0.09110  0.94870  0.97300  1.0000
  H   H102      1.0  0.05130  0.14240  0.97300  1.0000
  H   H103      1.0  0.19093  0.57557  0.63967  1.0000
  H   H104      1.0  0.42443  0.61537  0.63967  1.0000
  H   H105      1.0  0.38463  0.80907  0.63967  1.0000
  H   H106      1.0  0.52427  0.24223  0.30633  1.0000
  H   H107      1.0  0.75777  0.28203  0.30633  1.0000
  H   H108      1.0  0.71797  0.47573  0.30633  1.0000
  C   C253      1.0  0.05372  0.01107  0.06997  1.0000
  C   C254      1.0  0.98893  0.04265  0.06997  1.0000
  C   C255      1.0  0.95735  0.94628  0.06997  1.0000
  C   C256      1.0  0.72039  0.34440  0.40330  1.0000
  C   C257      1.0  0.65560  0.37598  0.40330  1.0000
  C   C258      1.0  0.62402  0.27961  0.40330  1.0000
  C   C259      1.0  0.38705  0.67774  0.73664  1.0000
  C   C260      1.0  0.32226  0.70932  0.73664  1.0000
  C   C261      1.0  0.29068  0.61295  0.73664  1.0000
  C   C262      1.0  0.94628  0.98893  0.93003  1.0000
  C   C263      1.0  0.01107  0.95735  0.93003  1.0000
  C   C264      1.0  0.04265  0.05372  0.93003  1.0000
  C   C265      1.0  0.27961  0.65560  0.59670  1.0000
  C   C266      1.0  0.34440  0.62402  0.59670  1.0000
  C   C267      1.0  0.37598  0.72039  0.59670  1.0000
  C   C268      1.0  0.61295  0.32226  0.26336  1.0000
  C   C269      1.0  0.67774  0.29068  0.26336  1.0000
  C   C270      1.0  0.70932  0.38705  0.26336  1.0000
  C   C271      1.0  0.04174  0.05246  0.07002  1.0000
  C   C272      1.0  0.94754  0.98928  0.07002  1.0000
  C   C273      1.0  0.01072  0.95826  0.07002  1.0000
  C   C274      1.0  0.70841  0.38579  0.40335  1.0000
  C   C275      1.0  0.61421  0.32261  0.40335  1.0000
  C   C276      1.0  0.67739  0.29159  0.40335  1.0000
  C   C277      1.0  0.37507  0.71913  0.73669  1.0000
  C   C278      1.0  0.28087  0.65595  0.73669  1.0000
  C   C279      1.0  0.34405  0.62493  0.73669  1.0000
  C   C280      1.0  0.95826  0.94754  0.92998  1.0000
  C   C281      1.0  0.05246  0.01072  0.92998  1.0000
  C   C282      1.0  0.98928  0.04174  0.92998  1.0000
  C   C283      1.0  0.29159  0.61421  0.59665  1.0000
  C   C284      1.0  0.38579  0.67739  0.59665  1.0000
  C   C285      1.0  0.32261  0.70841  0.59665  1.0000
  C   C286      1.0  0.62493  0.28087  0.26331  1.0000
  C   C287      1.0  0.71913  0.34405  0.26331  1.0000
  C   C288      1.0  0.65595  0.37507  0.26331  1.0000
  H   H109      1.0  0.06990  0.08790  0.07010  1.0000
  H   H110      1.0  0.91210  0.98200  0.07010  1.0000
  H   H111      1.0  0.01800  0.93010  0.07010  1.0000
  H   H112      1.0  0.73657  0.42123  0.40343  1.0000
  H   H113      1.0  0.57877  0.31533  0.40343  1.0000
  H   H114      1.0  0.68467  0.26343  0.40343  1.0000
  H   H115      1.0  0.40323  0.75457  0.73677  1.0000
  H   H116      1.0  0.24543  0.64867  0.73677  1.0000
  H   H117      1.0  0.35133  0.59677  0.73677  1.0000
  H   H118      1.0  0.93010  0.91210  0.92990  1.0000
  H   H119      1.0  0.08790  0.01800  0.92990  1.0000
  H   H120      1.0  0.98200  0.06990  0.92990  1.0000
  H   H121      1.0  0.26343  0.57877  0.59657  1.0000
  H   H122      1.0  0.42123  0.68467  0.59657  1.0000
  H   H123      1.0  0.31533  0.73657  0.59657  1.0000
  H   H124      1.0  0.59677  0.24543  0.26323  1.0000
  H   H125      1.0  0.75457  0.35133  0.26323  1.0000
  H   H126      1.0  0.64867  0.40323  0.26323  1.0000
  C   C289      1.0  0.18935  0.96085  0.12540  1.0000
  C   C290      1.0  0.03915  0.22850  0.12540  1.0000
  C   C291      1.0  0.77150  0.81065  0.12540  1.0000
  C   C292      1.0  0.85602  0.29418  0.45873  1.0000
  C   C293      1.0  0.70582  0.56183  0.45873  1.0000
  C   C294      1.0  0.43817  0.14398  0.45873  1.0000
  C   C295      1.0  0.52268  0.62752  0.79207  1.0000
  C   C296      1.0  0.37248  0.89517  0.79207  1.0000
  C   C297      1.0  0.10483  0.47732  0.79207  1.0000
  C   C298      1.0  0.81065  0.03915  0.87460  1.0000
  C   C299      1.0  0.96085  0.77150  0.87460  1.0000
  C   C300      1.0  0.22850  0.18935  0.87460  1.0000
  C   C301      1.0  0.14398  0.70582  0.54127  1.0000
  C   C302      1.0  0.29418  0.43817  0.54127  1.0000
  C   C303      1.0  0.56183  0.85602  0.54127  1.0000
  C   C304      1.0  0.47732  0.37248  0.20793  1.0000
  C   C305      1.0  0.62752  0.10483  0.20793  1.0000
  C   C306      1.0  0.89517  0.52268  0.20793  1.0000
  C   C307      1.0  0.23893  0.98037  0.14875  1.0000
  C   C308      1.0  0.01963  0.25856  0.14875  1.0000
  C   C309      1.0  0.74144  0.76107  0.14875  1.0000
  C   C310      1.0  0.90560  0.31370  0.48208  1.0000
  C   C311      1.0  0.68630  0.59189  0.48208  1.0000
  C   C312      1.0  0.40811  0.09440  0.48208  1.0000
  C   C313      1.0  0.57226  0.64704  0.81542  1.0000
  C   C314      1.0  0.35296  0.92523  0.81542  1.0000
  C   C315      1.0  0.07477  0.42774  0.81542  1.0000
  C   C316      1.0  0.76107  0.01963  0.85125  1.0000
  C   C317      1.0  0.98037  0.74144  0.85125  1.0000
  C   C318      1.0  0.25856  0.23893  0.85125  1.0000
  C   C319      1.0  0.09440  0.68630  0.51792  1.0000
  C   C320      1.0  0.31370  0.40811  0.51792  1.0000
  C   C321      1.0  0.59189  0.90560  0.51792  1.0000
  C   C322      1.0  0.42774  0.35296  0.18458  1.0000
  C   C323      1.0  0.64704  0.07477  0.18458  1.0000
  C   C324      1.0  0.92523  0.57226  0.18458  1.0000
  H   H127      1.0  0.26320  0.01710  0.14660  1.0000
  H   H128      1.0  0.98290  0.24610  0.14660  1.0000
  H   H129      1.0  0.75390  0.73680  0.14660  1.0000
  H   H130      1.0  0.92987  0.35043  0.47993  1.0000
  H   H131      1.0  0.64957  0.57943  0.47993  1.0000
  H   H132      1.0  0.42057  0.07013  0.47993  1.0000
  H   H133      1.0  0.59653  0.68377  0.81327  1.0000
  H   H134      1.0  0.31623  0.91277  0.81327  1.0000
  H   H135      1.0  0.08723  0.40347  0.81327  1.0000
  H   H136      1.0  0.73680  0.98290  0.85340  1.0000
  H   H137      1.0  0.01710  0.75390  0.85340  1.0000
  H   H138      1.0  0.24610  0.26320  0.85340  1.0000
  H   H139      1.0  0.07013  0.64957  0.52007  1.0000
  H   H140      1.0  0.35043  0.42057  0.52007  1.0000
  H   H141      1.0  0.57943  0.92987  0.52007  1.0000
  H   H142      1.0  0.40347  0.31623  0.18673  1.0000
  H   H143      1.0  0.68377  0.08723  0.18673  1.0000
  H   H144      1.0  0.91277  0.59653  0.18673  1.0000
  C   C325      1.0  0.25451  0.94848  0.17510  1.0000
  C   C326      1.0  0.05152  0.30603  0.17510  1.0000
  C   C327      1.0  0.69397  0.74549  0.17510  1.0000
  C   C328      1.0  0.92118  0.28181  0.50843  1.0000
  C   C329      1.0  0.71819  0.63936  0.50843  1.0000
  C   C330      1.0  0.36064  0.07882  0.50843  1.0000
  C   C331      1.0  0.58784  0.61515  0.84177  1.0000
  C   C332      1.0  0.38485  0.97270  0.84177  1.0000
  C   C333      1.0  0.02730  0.41216  0.84177  1.0000
  C   C334      1.0  0.74549  0.05152  0.82490  1.0000
  C   C335      1.0  0.94848  0.69397  0.82490  1.0000
  C   C336      1.0  0.30603  0.25451  0.82490  1.0000
  C   C337      1.0  0.07882  0.71819  0.49157  1.0000
  C   C338      1.0  0.28181  0.36064  0.49157  1.0000
  C   C339      1.0  0.63936  0.92118  0.49157  1.0000
  C   C340      1.0  0.41216  0.38485  0.15823  1.0000
  C   C341      1.0  0.61515  0.02730  0.15823  1.0000
  C   C342      1.0  0.97270  0.58784  0.15823  1.0000
  C   C343      1.0  0.22006  0.89470  0.17660  1.0000
  C   C344      1.0  0.10530  0.32536  0.17660  1.0000
  C   C345      1.0  0.67464  0.77994  0.17660  1.0000
  C   C346      1.0  0.88673  0.22803  0.50993  1.0000
  C   C347      1.0  0.77197  0.65869  0.50993  1.0000
  C   C348      1.0  0.34131  0.11327  0.50993  1.0000
  C   C349      1.0  0.55339  0.56137  0.84327  1.0000
  C   C350      1.0  0.43863  0.99203  0.84327  1.0000
  C   C351      1.0  0.00797  0.44661  0.84327  1.0000
  C   C352      1.0  0.77994  0.10530  0.82340  1.0000
  C   C353      1.0  0.89470  0.67464  0.82340  1.0000
  C   C354      1.0  0.32536  0.22006  0.82340  1.0000
  C   C355      1.0  0.11327  0.77197  0.49007  1.0000
  C   C356      1.0  0.22803  0.34131  0.49007  1.0000
  C   C357      1.0  0.65869  0.88673  0.49007  1.0000
  C   C358      1.0  0.44661  0.43863  0.15673  1.0000
  C   C359      1.0  0.56137  0.00797  0.15673  1.0000
  C   C360      1.0  0.99203  0.55339  0.15673  1.0000
  H   H145      1.0  0.23030  0.87250  0.19390  1.0000
  H   H146      1.0  0.12750  0.35780  0.19390  1.0000
  H   H147      1.0  0.64220  0.76970  0.19390  1.0000
  H   H148      1.0  0.89697  0.20583  0.52723  1.0000
  H   H149      1.0  0.79417  0.69113  0.52723  1.0000
  H   H150      1.0  0.30887  0.10303  0.52723  1.0000
  H   H151      1.0  0.56363  0.53917  0.86057  1.0000
  H   H152      1.0  0.46083  0.02447  0.86057  1.0000
  H   H153      1.0  0.97553  0.43637  0.86057  1.0000
  H   H154      1.0  0.76970  0.12750  0.80610  1.0000
  H   H155      1.0  0.87250  0.64220  0.80610  1.0000
  H   H156      1.0  0.35780  0.23030  0.80610  1.0000
  H   H157      1.0  0.10303  0.79417  0.47277  1.0000
  H   H158      1.0  0.20583  0.30887  0.47277  1.0000
  H   H159      1.0  0.69113  0.89697  0.47277  1.0000
  H   H160      1.0  0.43637  0.46083  0.13943  1.0000
  H   H161      1.0  0.53917  0.97553  0.13943  1.0000
  H   H162      1.0  0.02447  0.56363  0.13943  1.0000
  C   C361      1.0  0.16977  0.87228  0.15260  1.0000
  C   C362      1.0  0.12772  0.29749  0.15260  1.0000
  C   C363      1.0  0.70251  0.83023  0.15260  1.0000
  C   C364      1.0  0.83644  0.20561  0.48593  1.0000
  C   C365      1.0  0.79439  0.63082  0.48593  1.0000
  C   C366      1.0  0.36918  0.16356  0.48593  1.0000
  C   C367      1.0  0.50310  0.53895  0.81927  1.0000
  C   C368      1.0  0.46105  0.96416  0.81927  1.0000
  C   C369      1.0  0.03584  0.49690  0.81927  1.0000
  C   C370      1.0  0.83023  0.12772  0.84740  1.0000
  C   C371      1.0  0.87228  0.70251  0.84740  1.0000
  C   C372      1.0  0.29749  0.16977  0.84740  1.0000
  C   C373      1.0  0.16356  0.79439  0.51407  1.0000
  C   C374      1.0  0.20561  0.36918  0.51407  1.0000
  C   C375      1.0  0.63082  0.83644  0.51407  1.0000
  C   C376      1.0  0.49690  0.46105  0.18073  1.0000
  C   C377      1.0  0.53895  0.03584  0.18073  1.0000
  C   C378      1.0  0.96416  0.50310  0.18073  1.0000
  C   C379      1.0  0.15498  0.90513  0.12705  1.0000
  C   C380      1.0  0.09487  0.24985  0.12705  1.0000
  C   C381      1.0  0.75015  0.84502  0.12705  1.0000
  C   C382      1.0  0.82165  0.23846  0.46038  1.0000
  C   C383      1.0  0.76154  0.58318  0.46038  1.0000
  C   C384      1.0  0.41682  0.17835  0.46038  1.0000
  C   C385      1.0  0.48831  0.57180  0.79372  1.0000
  C   C386      1.0  0.42820  0.91652  0.79372  1.0000
  C   C387      1.0  0.08348  0.51169  0.79372  1.0000
  C   C388      1.0  0.84502  0.09487  0.87295  1.0000
  C   C389      1.0  0.90513  0.75015  0.87295  1.0000
  C   C390      1.0  0.24985  0.15498  0.87295  1.0000
  C   C391      1.0  0.17835  0.76154  0.53962  1.0000
  C   C392      1.0  0.23846  0.41682  0.53962  1.0000
  C   C393      1.0  0.58318  0.82165  0.53962  1.0000
  C   C394      1.0  0.51169  0.42820  0.20628  1.0000
  C   C395      1.0  0.57180  0.08348  0.20628  1.0000
  C   C396      1.0  0.91652  0.48831  0.20628  1.0000
  H   H163      1.0  0.12150  0.89020  0.11040  1.0000
  H   H164      1.0  0.10980  0.23130  0.11040  1.0000
  H   H165      1.0  0.76870  0.87850  0.11040  1.0000
  H   H166      1.0  0.78817  0.22353  0.44373  1.0000
  H   H167      1.0  0.77647  0.56463  0.44373  1.0000
  H   H168      1.0  0.43537  0.21183  0.44373  1.0000
  H   H169      1.0  0.45483  0.55687  0.77707  1.0000
  H   H170      1.0  0.44313  0.89797  0.77707  1.0000
  H   H171      1.0  0.10203  0.54517  0.77707  1.0000
  H   H172      1.0  0.87850  0.10980  0.88960  1.0000
  H   H173      1.0  0.89020  0.76870  0.88960  1.0000
  H   H174      1.0  0.23130  0.12150  0.88960  1.0000
  H   H175      1.0  0.21183  0.77647  0.55627  1.0000
  H   H176      1.0  0.22353  0.43537  0.55627  1.0000
  H   H177      1.0  0.56463  0.78817  0.55627  1.0000
  H   H178      1.0  0.54517  0.44313  0.22293  1.0000
  H   H179      1.0  0.55687  0.10203  0.22293  1.0000
  H   H180      1.0  0.89797  0.45483  0.22293  1.0000
  C   C397      1.0  0.13410  0.81270  0.15120  1.0000
  C   C398      1.0  0.18730  0.32140  0.15120  1.0000
  C   C399      1.0  0.67860  0.86590  0.15120  1.0000
  C   C400      1.0  0.80077  0.14603  0.48453  1.0000
  C   C401      1.0  0.85397  0.65473  0.48453  1.0000
  C   C402      1.0  0.34527  0.19923  0.48453  1.0000
  C   C403      1.0  0.46743  0.47937  0.81787  1.0000
  C   C404      1.0  0.52063  0.98807  0.81787  1.0000
  C   C405      1.0  0.01193  0.53257  0.81787  1.0000
  C   C406      1.0  0.86590  0.18730  0.84880  1.0000
  C   C407      1.0  0.81270  0.67860  0.84880  1.0000
  C   C408      1.0  0.32140  0.13410  0.84880  1.0000
  C   C409      1.0  0.19923  0.85397  0.51547  1.0000
  C   C410      1.0  0.14603  0.34527  0.51547  1.0000
  C   C411      1.0  0.65473  0.80077  0.51547  1.0000
  C   C412      1.0  0.53257  0.52063  0.18213  1.0000
  C   C413      1.0  0.47937  0.01193  0.18213  1.0000
  C   C414      1.0  0.98807  0.46743  0.18213  1.0000
  C   C415      1.0  0.31060  0.97360  0.19760  1.0000
  C   C416      1.0  0.02640  0.33700  0.19760  1.0000
  C   C417      1.0  0.66300  0.68940  0.19760  1.0000
  C   C418      1.0  0.97727  0.30693  0.53093  1.0000
  C   C419      1.0  0.69307  0.67033  0.53093  1.0000
  C   C420      1.0  0.32967  0.02273  0.53093  1.0000
  C   C421      1.0  0.64393  0.64027  0.86427  1.0000
  C   C422      1.0  0.35973  0.00367  0.86427  1.0000
  C   C423      1.0  0.99633  0.35607  0.86427  1.0000
  C   C424      1.0  0.68940  0.02640  0.80240  1.0000
  C   C425      1.0  0.97360  0.66300  0.80240  1.0000
  C   C426      1.0  0.33700  0.31060  0.80240  1.0000
  C   C427      1.0  0.02273  0.69307  0.46907  1.0000
  C   C428      1.0  0.30693  0.32967  0.46907  1.0000
  C   C429      1.0  0.67033  0.97727  0.46907  1.0000
  C   C430      1.0  0.35607  0.35973  0.13573  1.0000
  C   C431      1.0  0.64027  0.99633  0.13573  1.0000
  C   C432      1.0  0.00367  0.64393  0.13573  1.0000
  O   O1        1.0  0.26284  0.27662  0.03790  1.0000
  O   O2        1.0  0.72338  0.98622  0.03790  1.0000
  O   O3        1.0  0.01378  0.73716  0.03790  1.0000
  O   O4        1.0  0.92951  0.60995  0.37123  1.0000
  O   O5        1.0  0.39005  0.31955  0.37123  1.0000
  O   O6        1.0  0.68045  0.07049  0.37123  1.0000
  O   O7        1.0  0.59617  0.94329  0.70457  1.0000
  O   O8        1.0  0.05671  0.65289  0.70457  1.0000
  O   O9        1.0  0.34711  0.40383  0.70457  1.0000
  O   O10       1.0  0.73716  0.72338  0.96210  1.0000
  O   O11       1.0  0.27662  0.01378  0.96210  1.0000
  O   O12       1.0  0.98622  0.26284  0.96210  1.0000
  O   O13       1.0  0.07049  0.39005  0.62877  1.0000
  O   O14       1.0  0.60995  0.68045  0.62877  1.0000
  O   O15       1.0  0.31955  0.92951  0.62877  1.0000
  O   O16       1.0  0.40383  0.05671  0.29543  1.0000
  O   O17       1.0  0.94329  0.34711  0.29543  1.0000
  O   O18       1.0  0.65289  0.59617  0.29543  1.0000
  O   O19       1.0  0.33815  0.31693  0.99210  1.0000
  O   O20       1.0  0.68307  0.02122  0.99210  1.0000
  O   O21       1.0  0.97878  0.66185  0.99210  1.0000
  O   O22       1.0  0.00482  0.65026  0.32543  1.0000
  O   O23       1.0  0.34974  0.35455  0.32543  1.0000
  O   O24       1.0  0.64545  0.99518  0.32543  1.0000
  O   O25       1.0  0.67148  0.98360  0.65877  1.0000
  O   O26       1.0  0.01640  0.68789  0.65877  1.0000
  O   O27       1.0  0.31211  0.32852  0.65877  1.0000
  O   O28       1.0  0.66185  0.68307  0.00790  1.0000
  O   O29       1.0  0.31693  0.97878  0.00790  1.0000
  O   O30       1.0  0.02122  0.33815  0.00790  1.0000
  O   O31       1.0  0.99518  0.34974  0.67457  1.0000
  O   O32       1.0  0.65026  0.64545  0.67457  1.0000
  O   O33       1.0  0.35455  0.00482  0.67457  1.0000
  O   O34       1.0  0.32852  0.01640  0.34123  1.0000
  O   O35       1.0  0.98360  0.31211  0.34123  1.0000
  O   O36       1.0  0.68789  0.67148  0.34123  1.0000
  O   O37       1.0  0.38581  0.12674  0.95747  1.0000
  O   O38       1.0  0.87326  0.25907  0.95747  1.0000
  O   O39       1.0  0.74093  0.61419  0.95747  1.0000
  O   O40       1.0  0.05248  0.46007  0.29080  1.0000
  O   O41       1.0  0.53993  0.59240  0.29080  1.0000
  O   O42       1.0  0.40760  0.94752  0.29080  1.0000
  O   O43       1.0  0.71914  0.79341  0.62414  1.0000
  O   O44       1.0  0.20659  0.92574  0.62414  1.0000
  O   O45       1.0  0.07426  0.28086  0.62414  1.0000
  O   O46       1.0  0.61419  0.87326  0.04253  1.0000
  O   O47       1.0  0.12674  0.74093  0.04253  1.0000
  O   O48       1.0  0.25907  0.38581  0.04253  1.0000
  O   O49       1.0  0.94752  0.53993  0.70920  1.0000
  O   O50       1.0  0.46007  0.40760  0.70920  1.0000
  O   O51       1.0  0.59240  0.05248  0.70920  1.0000
  O   O52       1.0  0.28086  0.20659  0.37586  1.0000
  O   O53       1.0  0.79341  0.07426  0.37586  1.0000
  O   O54       1.0  0.92574  0.71914  0.37586  1.0000
  O   O55       1.0  0.43266  0.21418  0.96940  1.0000
  O   O56       1.0  0.78582  0.21848  0.96940  1.0000
  O   O57       1.0  0.78152  0.56734  0.96940  1.0000
  O   O58       1.0  0.09933  0.54751  0.30273  1.0000
  O   O59       1.0  0.45249  0.55181  0.30273  1.0000
  O   O60       1.0  0.44819  0.90067  0.30273  1.0000
  O   O61       1.0  0.76599  0.88085  0.63607  1.0000
  O   O62       1.0  0.11915  0.88515  0.63607  1.0000
  O   O63       1.0  0.11485  0.23401  0.63607  1.0000
  O   O64       1.0  0.56734  0.78582  0.03060  1.0000
  O   O65       1.0  0.21418  0.78152  0.03060  1.0000
  O   O66       1.0  0.21848  0.43266  0.03060  1.0000
  O   O67       1.0  0.90067  0.45249  0.69727  1.0000
  O   O68       1.0  0.54751  0.44819  0.69727  1.0000
  O   O69       1.0  0.55181  0.09933  0.69727  1.0000
  O   O70       1.0  0.23401  0.11915  0.36393  1.0000
  O   O71       1.0  0.88085  0.11485  0.36393  1.0000
  O   O72       1.0  0.88515  0.76599  0.36393  1.0000
  O   O73       1.0  0.09035  0.79470  0.12595  1.0000
  O   O74       1.0  0.20530  0.29565  0.12595  1.0000
  O   O75       1.0  0.70435  0.90965  0.12595  1.0000
  O   O76       1.0  0.75702  0.12803  0.45928  1.0000
  O   O77       1.0  0.87197  0.62898  0.45928  1.0000
  O   O78       1.0  0.37102  0.24298  0.45928  1.0000
  O   O79       1.0  0.42368  0.46137  0.79262  1.0000
  O   O80       1.0  0.53863  0.96232  0.79262  1.0000
  O   O81       1.0  0.03768  0.57632  0.79262  1.0000
  O   O82       1.0  0.90965  0.20530  0.87405  1.0000
  O   O83       1.0  0.79470  0.70435  0.87405  1.0000
  O   O84       1.0  0.29565  0.09035  0.87405  1.0000
  O   O85       1.0  0.24298  0.87197  0.54072  1.0000
  O   O86       1.0  0.12803  0.37102  0.54072  1.0000
  O   O87       1.0  0.62898  0.75702  0.54072  1.0000
  O   O88       1.0  0.57632  0.53863  0.20738  1.0000
  O   O89       1.0  0.46137  0.03768  0.20738  1.0000
  O   O90       1.0  0.96232  0.42368  0.20738  1.0000
  O   O91       1.0  0.14800  0.78431  0.17420  1.0000
  O   O92       1.0  0.21569  0.36369  0.17420  1.0000
  O   O93       1.0  0.63631  0.85200  0.17420  1.0000
  O   O94       1.0  0.81467  0.11764  0.50753  1.0000
  O   O95       1.0  0.88236  0.69702  0.50753  1.0000
  O   O96       1.0  0.30298  0.18533  0.50753  1.0000
  O   O97       1.0  0.48133  0.45098  0.84087  1.0000
  O   O98       1.0  0.54902  0.03036  0.84087  1.0000
  O   O99       1.0  0.96964  0.51867  0.84087  1.0000
  O   O100      1.0  0.85200  0.21569  0.82580  1.0000
  O   O101      1.0  0.78431  0.63631  0.82580  1.0000
  O   O102      1.0  0.36369  0.14800  0.82580  1.0000
  O   O103      1.0  0.18533  0.88236  0.49247  1.0000
  O   O104      1.0  0.11764  0.30298  0.49247  1.0000
  O   O105      1.0  0.69702  0.81467  0.49247  1.0000
  O   O106      1.0  0.51867  0.54902  0.15913  1.0000
  O   O107      1.0  0.45098  0.96964  0.15913  1.0000
  O   O108      1.0  0.03036  0.48133  0.15913  1.0000
  O   O109      1.0  0.34270  0.02086  0.19091  1.0000
  O   O110      1.0  0.97914  0.32184  0.19091  1.0000
  O   O111      1.0  0.67816  0.65730  0.19091  1.0000
  O   O112      1.0  0.00937  0.35419  0.52424  1.0000
  O   O113      1.0  0.64581  0.65517  0.52424  1.0000
  O   O114      1.0  0.34483  0.99063  0.52424  1.0000
  O   O115      1.0  0.67603  0.68753  0.85758  1.0000
  O   O116      1.0  0.31247  0.98851  0.85758  1.0000
  O   O117      1.0  0.01149  0.32397  0.85758  1.0000
  O   O118      1.0  0.65730  0.97914  0.80909  1.0000
  O   O119      1.0  0.02086  0.67816  0.80909  1.0000
  O   O120      1.0  0.32184  0.34270  0.80909  1.0000
  O   O121      1.0  0.99063  0.64581  0.47576  1.0000
  O   O122      1.0  0.35419  0.34483  0.47576  1.0000
  O   O123      1.0  0.65517  0.00937  0.47576  1.0000
  O   O124      1.0  0.32397  0.31247  0.14242  1.0000
  O   O125      1.0  0.68753  0.01149  0.14242  1.0000
  O   O126      1.0  0.98851  0.67603  0.14242  1.0000
  O   O127      1.0  0.32186  0.94520  0.22643  1.0000
  O   O128      1.0  0.05480  0.37666  0.22643  1.0000
  O   O129      1.0  0.62334  0.67814  0.22643  1.0000
  O   O130      1.0  0.98853  0.27853  0.55976  1.0000
  O   O131      1.0  0.72147  0.70999  0.55976  1.0000
  O   O132      1.0  0.29001  0.01147  0.55976  1.0000
  O   O133      1.0  0.65519  0.61187  0.89310  1.0000
  O   O134      1.0  0.38813  0.04333  0.89310  1.0000
  O   O135      1.0  0.95667  0.34481  0.89310  1.0000
  O   O136      1.0  0.67814  0.05480  0.77357  1.0000
  O   O137      1.0  0.94520  0.62334  0.77357  1.0000
  O   O138      1.0  0.37666  0.32186  0.77357  1.0000
  O   O139      1.0  0.01147  0.72147  0.44024  1.0000
  O   O140      1.0  0.27853  0.29001  0.44024  1.0000
  O   O141      1.0  0.70999  0.98853  0.44024  1.0000
  O   O142      1.0  0.34481  0.38813  0.10690  1.0000
  O   O143      1.0  0.61187  0.95667  0.10690  1.0000
  O   O144      1.0  0.04333  0.65519  0.10690  1.0000
  Zn  Zn1       1.0  0.39590  0.99908  0.24989  1.0000
  Zn  Zn2       1.0  0.00092  0.39682  0.24989  1.0000
  Zn  Zn3       1.0  0.60318  0.60410  0.24989  1.0000
  Zn  Zn4       1.0  0.06257  0.33241  0.58322  1.0000
  Zn  Zn5       1.0  0.66759  0.73016  0.58322  1.0000
  Zn  Zn6       1.0  0.26984  0.93743  0.58322  1.0000
  Zn  Zn7       1.0  0.72924  0.66575  0.91656  1.0000
  Zn  Zn8       1.0  0.33425  0.06349  0.91656  1.0000
  Zn  Zn9       1.0  0.93651  0.27076  0.91656  1.0000
  Zn  Zn10      1.0  0.60410  0.00092  0.75011  1.0000
  Zn  Zn11      1.0  0.99908  0.60318  0.75011  1.0000
  Zn  Zn12      1.0  0.39682  0.39590  0.75011  1.0000
  Zn  Zn13      1.0  0.93743  0.66759  0.41678  1.0000
  Zn  Zn14      1.0  0.33241  0.26984  0.41678  1.0000
  Zn  Zn15      1.0  0.73016  0.06257  0.41678  1.0000
  Zn  Zn16      1.0  0.27076  0.33425  0.08344  1.0000
  Zn  Zn17      1.0  0.66575  0.93651  0.08344  1.0000
  Zn  Zn18      1.0  0.06349  0.72924  0.08344  1.0000
