data_image0
_chemical_formula_structural       C16H8O36Y4
_chemical_formula_sum              "C16 H8 O36 Y4"
_cell_length_a       8.6962
_cell_length_b       8.6962
_cell_length_c       12.824
_cell_angle_alpha    90
_cell_angle_beta     90
_cell_angle_gamma    90

_space_group_name_H-M_alt    "P 1"
_space_group_IT_number       1

loop_
  _space_group_symop_operation_xyz
  'x, y, z'

loop_
  _atom_site_type_symbol
  _atom_site_label
  _atom_site_symmetry_multiplicity
  _atom_site_fract_x
  _atom_site_fract_y
  _atom_site_fract_z
  _atom_site_occupancy
  C   C1        1.0  0.52390  0.96530  0.30084  1.0000
  C   C2        1.0  0.03470  0.02390  0.80084  1.0000
  C   C3        1.0  0.97610  0.53470  0.30084  1.0000
  C   C4        1.0  0.46530  0.47610  0.80084  1.0000
  C   C5        1.0  0.47610  0.03470  0.69916  1.0000
  C   C6        1.0  0.96530  0.97610  0.19916  1.0000
  C   C7        1.0  0.02390  0.46530  0.69916  1.0000
  C   C8        1.0  0.53470  0.52390  0.19916  1.0000
  C   C9        1.0  0.47640  0.04370  0.19799  1.0000
  C   C10       1.0  0.95630  0.97640  0.69799  1.0000
  C   C11       1.0  0.02360  0.45630  0.19799  1.0000
  C   C12       1.0  0.54370  0.52360  0.69799  1.0000
  C   C13       1.0  0.52360  0.95630  0.80201  1.0000
  C   C14       1.0  0.04370  0.02360  0.30201  1.0000
  C   C15       1.0  0.97640  0.54370  0.80201  1.0000
  C   C16       1.0  0.45630  0.47640  0.30201  1.0000
  H   H1        1.0  0.74810  0.16190  0.52160  1.0000
  H   H2        1.0  0.83810  0.24810  0.02160  1.0000
  H   H3        1.0  0.75190  0.33810  0.52160  1.0000
  H   H4        1.0  0.66190  0.25190  0.02160  1.0000
  H   H5        1.0  0.25190  0.83810  0.47840  1.0000
  H   H6        1.0  0.16190  0.75190  0.97840  1.0000
  H   H7        1.0  0.24810  0.66190  0.47840  1.0000
  H   H8        1.0  0.33810  0.74810  0.97840  1.0000
  O   O1        1.0  0.62570  0.02920  0.35310  1.0000
  O   O2        1.0  0.97080  0.12570  0.85310  1.0000
  O   O3        1.0  0.87430  0.47080  0.35310  1.0000
  O   O4        1.0  0.52920  0.37430  0.85310  1.0000
  O   O5        1.0  0.37430  0.97080  0.64690  1.0000
  O   O6        1.0  0.02920  0.87430  0.14690  1.0000
  O   O7        1.0  0.12570  0.52920  0.64690  1.0000
  O   O8        1.0  0.47080  0.62570  0.14690  1.0000
  O   O9        1.0  0.45670  0.84160  0.32300  1.0000
  O   O10       1.0  0.15840  0.95670  0.82300  1.0000
  O   O11       1.0  0.04330  0.65840  0.32300  1.0000
  O   O12       1.0  0.34160  0.54330  0.82300  1.0000
  O   O13       1.0  0.54330  0.15840  0.67700  1.0000
  O   O14       1.0  0.84160  0.04330  0.17700  1.0000
  O   O15       1.0  0.95670  0.34160  0.67700  1.0000
  O   O16       1.0  0.65840  0.45670  0.17700  1.0000
  O   O17       1.0  0.36840  0.98060  0.14860  1.0000
  O   O18       1.0  0.01940  0.86840  0.64860  1.0000
  O   O19       1.0  0.13160  0.51940  0.14860  1.0000
  O   O20       1.0  0.48060  0.63160  0.64860  1.0000
  O   O21       1.0  0.63160  0.01940  0.85140  1.0000
  O   O22       1.0  0.98060  0.13160  0.35140  1.0000
  O   O23       1.0  0.86840  0.48060  0.85140  1.0000
  O   O24       1.0  0.51940  0.36840  0.35140  1.0000
  O   O25       1.0  0.54780  0.16120  0.17219  1.0000
  O   O26       1.0  0.83880  0.04780  0.67219  1.0000
  O   O27       1.0  0.95220  0.33880  0.17219  1.0000
  O   O28       1.0  0.66120  0.45220  0.67219  1.0000
  O   O29       1.0  0.45220  0.83880  0.82781  1.0000
  O   O30       1.0  0.16120  0.95220  0.32781  1.0000
  O   O31       1.0  0.04780  0.66120  0.82781  1.0000
  O   O32       1.0  0.33880  0.54780  0.32781  1.0000
  O   O33       1.0  0.75000  0.25000  0.47980  1.0000
  O   O34       1.0  0.75000  0.25000  0.97980  1.0000
  O   O35       1.0  0.25000  0.75000  0.52020  1.0000
  O   O36       1.0  0.25000  0.75000  0.02020  1.0000
  Y   Y1        1.0  0.75000  0.25000  0.28866  1.0000
  Y   Y2        1.0  0.75000  0.25000  0.78866  1.0000
  Y   Y3        1.0  0.25000  0.75000  0.71134  1.0000
  Y   Y4        1.0  0.25000  0.75000  0.21134  1.0000
