data_image0
_chemical_formula_structural       C16H8O36Y4
_chemical_formula_sum              "C16 H8 O36 Y4"
_cell_length_a       8.6774
_cell_length_b       8.6774
_cell_length_c       12.751
_cell_angle_alpha    90
_cell_angle_beta     90
_cell_angle_gamma    90

_space_group_name_H-M_alt    "P 1"
_space_group_IT_number       1

loop_
  _space_group_symop_operation_xyz
  'x, y, z'

loop_
  _atom_site_type_symbol
  _atom_site_label
  _atom_site_symmetry_multiplicity
  _atom_site_fract_x
  _atom_site_fract_y
  _atom_site_fract_z
  _atom_site_occupancy
  C   C1        1.0  0.52350  0.96540  0.30038  1.0000
  C   C2        1.0  0.03460  0.02350  0.80038  1.0000
  C   C3        1.0  0.97650  0.53460  0.30038  1.0000
  C   C4        1.0  0.46540  0.47650  0.80038  1.0000
  C   C5        1.0  0.47650  0.03460  0.69962  1.0000
  C   C6        1.0  0.96540  0.97650  0.19962  1.0000
  C   C7        1.0  0.02350  0.46540  0.69962  1.0000
  C   C8        1.0  0.53460  0.52350  0.19962  1.0000
  C   C9        1.0  0.47590  0.04510  0.19708  1.0000
  C   C10       1.0  0.95490  0.97590  0.69708  1.0000
  C   C11       1.0  0.02410  0.45490  0.19708  1.0000
  C   C12       1.0  0.54510  0.52410  0.69708  1.0000
  C   C13       1.0  0.52410  0.95490  0.80292  1.0000
  C   C14       1.0  0.04510  0.02410  0.30292  1.0000
  C   C15       1.0  0.97590  0.54510  0.80292  1.0000
  C   C16       1.0  0.45490  0.47590  0.30292  1.0000
  H   H1        1.0  0.75060  0.16040  0.52460  1.0000
  H   H2        1.0  0.83960  0.25060  0.02460  1.0000
  H   H3        1.0  0.74940  0.33960  0.52460  1.0000
  H   H4        1.0  0.66040  0.24940  0.02460  1.0000
  H   H5        1.0  0.24940  0.83960  0.47540  1.0000
  H   H6        1.0  0.16040  0.74940  0.97540  1.0000
  H   H7        1.0  0.25060  0.66040  0.47540  1.0000
  H   H8        1.0  0.33960  0.75060  0.97540  1.0000
  O   O1        1.0  0.62430  0.02950  0.35430  1.0000
  O   O2        1.0  0.97050  0.12430  0.85430  1.0000
  O   O3        1.0  0.87570  0.47050  0.35430  1.0000
  O   O4        1.0  0.52950  0.37570  0.85430  1.0000
  O   O5        1.0  0.37570  0.97050  0.64570  1.0000
  O   O6        1.0  0.02950  0.87570  0.14570  1.0000
  O   O7        1.0  0.12430  0.52950  0.64570  1.0000
  O   O8        1.0  0.47050  0.62430  0.14570  1.0000
  O   O9        1.0  0.45660  0.84030  0.32120  1.0000
  O   O10       1.0  0.15970  0.95660  0.82120  1.0000
  O   O11       1.0  0.04340  0.65970  0.32120  1.0000
  O   O12       1.0  0.34030  0.54340  0.82120  1.0000
  O   O13       1.0  0.54340  0.15970  0.67880  1.0000
  O   O14       1.0  0.84030  0.04340  0.17880  1.0000
  O   O15       1.0  0.95660  0.34030  0.67880  1.0000
  O   O16       1.0  0.65970  0.45660  0.17880  1.0000
  O   O17       1.0  0.36690  0.98290  0.14730  1.0000
  O   O18       1.0  0.01710  0.86690  0.64730  1.0000
  O   O19       1.0  0.13310  0.51710  0.14730  1.0000
  O   O20       1.0  0.48290  0.63310  0.64730  1.0000
  O   O21       1.0  0.63310  0.01710  0.85270  1.0000
  O   O22       1.0  0.98290  0.13310  0.35270  1.0000
  O   O23       1.0  0.86690  0.48290  0.85270  1.0000
  O   O24       1.0  0.51710  0.36690  0.35270  1.0000
  O   O25       1.0  0.54820  0.16320  0.17156  1.0000
  O   O26       1.0  0.83680  0.04820  0.67156  1.0000
  O   O27       1.0  0.95180  0.33680  0.17156  1.0000
  O   O28       1.0  0.66320  0.45180  0.67156  1.0000
  O   O29       1.0  0.45180  0.83680  0.82844  1.0000
  O   O30       1.0  0.16320  0.95180  0.32844  1.0000
  O   O31       1.0  0.04820  0.66320  0.82844  1.0000
  O   O32       1.0  0.33680  0.54820  0.32844  1.0000
  O   O33       1.0  0.75000  0.25000  0.48190  1.0000
  O   O34       1.0  0.75000  0.25000  0.98190  1.0000
  O   O35       1.0  0.25000  0.75000  0.51810  1.0000
  O   O36       1.0  0.25000  0.75000  0.01810  1.0000
  Y   Y1        1.0  0.75000  0.25000  0.29047  1.0000
  Y   Y2        1.0  0.75000  0.25000  0.79047  1.0000
  Y   Y3        1.0  0.25000  0.75000  0.70953  1.0000
  Y   Y4        1.0  0.25000  0.75000  0.20953  1.0000
