data_image0
_chemical_formula_structural       C16H8O36Y4
_chemical_formula_sum              "C16 H8 O36 Y4"
_cell_length_a       8.704
_cell_length_b       8.704
_cell_length_c       12.832
_cell_angle_alpha    90
_cell_angle_beta     90
_cell_angle_gamma    90

_space_group_name_H-M_alt    "P 1"
_space_group_IT_number       1

loop_
  _space_group_symop_operation_xyz
  'x, y, z'

loop_
  _atom_site_type_symbol
  _atom_site_label
  _atom_site_symmetry_multiplicity
  _atom_site_fract_x
  _atom_site_fract_y
  _atom_site_fract_z
  _atom_site_occupancy
  C   C1        1.0  0.52400  0.96540  0.30079  1.0000
  C   C2        1.0  0.03460  0.02400  0.80079  1.0000
  C   C3        1.0  0.97600  0.53460  0.30079  1.0000
  C   C4        1.0  0.46540  0.47600  0.80079  1.0000
  C   C5        1.0  0.47600  0.03460  0.69921  1.0000
  C   C6        1.0  0.96540  0.97600  0.19921  1.0000
  C   C7        1.0  0.02400  0.46540  0.69921  1.0000
  C   C8        1.0  0.53460  0.52400  0.19921  1.0000
  C   C9        1.0  0.47600  0.04370  0.19783  1.0000
  C   C10       1.0  0.95630  0.97600  0.69783  1.0000
  C   C11       1.0  0.02400  0.45630  0.19783  1.0000
  C   C12       1.0  0.54370  0.52400  0.69783  1.0000
  C   C13       1.0  0.52400  0.95630  0.80217  1.0000
  C   C14       1.0  0.04370  0.02400  0.30217  1.0000
  C   C15       1.0  0.97600  0.54370  0.80217  1.0000
  C   C16       1.0  0.45630  0.47600  0.30217  1.0000
  H   H1        1.0  0.74920  0.16180  0.52120  1.0000
  H   H2        1.0  0.83820  0.24920  0.02120  1.0000
  H   H3        1.0  0.75080  0.33820  0.52120  1.0000
  H   H4        1.0  0.66180  0.25080  0.02120  1.0000
  H   H5        1.0  0.25080  0.83820  0.47880  1.0000
  H   H6        1.0  0.16180  0.75080  0.97880  1.0000
  H   H7        1.0  0.24920  0.66180  0.47880  1.0000
  H   H8        1.0  0.33820  0.74920  0.97880  1.0000
  O   O1        1.0  0.62540  0.02900  0.35300  1.0000
  O   O2        1.0  0.97100  0.12540  0.85300  1.0000
  O   O3        1.0  0.87460  0.47100  0.35300  1.0000
  O   O4        1.0  0.52900  0.37460  0.85300  1.0000
  O   O5        1.0  0.37460  0.97100  0.64700  1.0000
  O   O6        1.0  0.02900  0.87460  0.14700  1.0000
  O   O7        1.0  0.12540  0.52900  0.64700  1.0000
  O   O8        1.0  0.47100  0.62540  0.14700  1.0000
  O   O9        1.0  0.45690  0.84150  0.32290  1.0000
  O   O10       1.0  0.15850  0.95690  0.82290  1.0000
  O   O11       1.0  0.04310  0.65850  0.32290  1.0000
  O   O12       1.0  0.34150  0.54310  0.82290  1.0000
  O   O13       1.0  0.54310  0.15850  0.67710  1.0000
  O   O14       1.0  0.84150  0.04310  0.17710  1.0000
  O   O15       1.0  0.95690  0.34150  0.67710  1.0000
  O   O16       1.0  0.65850  0.45690  0.17710  1.0000
  O   O17       1.0  0.36830  0.98050  0.14880  1.0000
  O   O18       1.0  0.01950  0.86830  0.64880  1.0000
  O   O19       1.0  0.13170  0.51950  0.14880  1.0000
  O   O20       1.0  0.48050  0.63170  0.64880  1.0000
  O   O21       1.0  0.63170  0.01950  0.85120  1.0000
  O   O22       1.0  0.98050  0.13170  0.35120  1.0000
  O   O23       1.0  0.86830  0.48050  0.85120  1.0000
  O   O24       1.0  0.51950  0.36830  0.35120  1.0000
  O   O25       1.0  0.54770  0.16080  0.17193  1.0000
  O   O26       1.0  0.83920  0.04770  0.67193  1.0000
  O   O27       1.0  0.95230  0.33920  0.17193  1.0000
  O   O28       1.0  0.66080  0.45230  0.67193  1.0000
  O   O29       1.0  0.45230  0.83920  0.82807  1.0000
  O   O30       1.0  0.16080  0.95230  0.32807  1.0000
  O   O31       1.0  0.04770  0.66080  0.82807  1.0000
  O   O32       1.0  0.33920  0.54770  0.32807  1.0000
  O   O33       1.0  0.75000  0.25000  0.47980  1.0000
  O   O34       1.0  0.75000  0.25000  0.97980  1.0000
  O   O35       1.0  0.25000  0.75000  0.52020  1.0000
  O   O36       1.0  0.25000  0.75000  0.02020  1.0000
  Y   Y1        1.0  0.75000  0.25000  0.28865  1.0000
  Y   Y2        1.0  0.75000  0.25000  0.78865  1.0000
  Y   Y3        1.0  0.25000  0.75000  0.71135  1.0000
  Y   Y4        1.0  0.25000  0.75000  0.21135  1.0000
