data_image0
_chemical_formula_structural       U4O44C20H4C4H4C8H4C20H4C8H4C4H4
_chemical_formula_sum              "U4 O44 C64 H24"
_cell_length_a       12.3655
_cell_length_b       16.4911
_cell_length_c       14.7331
_cell_angle_alpha    90
_cell_angle_beta     114.511
_cell_angle_gamma    90

_space_group_name_H-M_alt    "P 1"
_space_group_IT_number       1

loop_
  _space_group_symop_operation_xyz
  'x, y, z'

loop_
  _atom_site_type_symbol
  _atom_site_label
  _atom_site_symmetry_multiplicity
  _atom_site_fract_x
  _atom_site_fract_y
  _atom_site_fract_z
  _atom_site_occupancy
  U   U1        1.0  0.55751  0.09364  0.66022  1.0000
  U   U2        1.0  0.94249  0.59364  0.83978  1.0000
  U   U3        1.0  0.44249  0.90636  0.33978  1.0000
  U   U4        1.0  0.05751  0.40636  0.16022  1.0000
  O   O1        1.0  0.44250  0.16480  0.63950  1.0000
  O   O2        1.0  0.05750  0.66480  0.86050  1.0000
  O   O3        1.0  0.55750  0.83520  0.36050  1.0000
  O   O4        1.0  0.94250  0.33520  0.13950  1.0000
  O   O5        1.0  0.67060  0.02220  0.67870  1.0000
  O   O6        1.0  0.82940  0.52220  0.82130  1.0000
  O   O7        1.0  0.32940  0.97780  0.32130  1.0000
  O   O8        1.0  0.17060  0.47780  0.17870  1.0000
  O   O9        1.0  0.67960  0.15400  0.81520  1.0000
  O   O10       1.0  0.82040  0.65400  0.68480  1.0000
  O   O11       1.0  0.32040  0.84600  0.18480  1.0000
  O   O12       1.0  0.17960  0.34600  0.31520  1.0000
  O   O13       1.0  0.81700  0.07690  0.92850  1.0000
  O   O14       1.0  0.68300  0.57690  0.57150  1.0000
  O   O15       1.0  0.18300  0.92310  0.07150  1.0000
  O   O16       1.0  0.31700  0.42310  0.42850  1.0000
  O   O17       1.0  0.52440  0.03190  0.78830  1.0000
  O   O18       1.0  0.97560  0.53190  0.71170  1.0000
  O   O19       1.0  0.47560  0.96810  0.21170  1.0000
  O   O20       1.0  0.02440  0.46810  0.28830  1.0000
  O   O21       1.0  0.36100  0.04910  0.81260  1.0000
  O   O22       1.0  0.13900  0.54910  0.68740  1.0000
  O   O23       1.0  0.63900  0.95090  0.18740  1.0000
  O   O24       1.0  0.86100  0.45090  0.31260  1.0000
  O   O25       1.0  0.58750  0.00990  0.41480  1.0000
  O   O26       1.0  0.91250  0.50990  0.08520  1.0000
  O   O27       1.0  0.41250  0.99010  0.58520  1.0000
  O   O28       1.0  0.08750  0.49010  0.91480  1.0000
  O   O29       1.0  0.50990  0.09870  0.48480  1.0000
  O   O30       1.0  0.99010  0.59870  0.01520  1.0000
  O   O31       1.0  0.49010  0.90130  0.51520  1.0000
  O   O32       1.0  0.00990  0.40130  0.98480  1.0000
  O   O33       1.0  0.57680  0.30300  0.55090  1.0000
  O   O34       1.0  0.92320  0.80300  0.94910  1.0000
  O   O35       1.0  0.42320  0.69700  0.44910  1.0000
  O   O36       1.0  0.07680  0.19700  0.05090  1.0000
  O   O37       1.0  0.67490  0.19080  0.62210  1.0000
  O   O38       1.0  0.82510  0.69080  0.87790  1.0000
  O   O39       1.0  0.32510  0.80920  0.37790  1.0000
  O   O40       1.0  0.17490  0.30920  0.12210  1.0000
  O   O41       1.0  0.74640  0.18850  0.21940  1.0000
  O   O42       1.0  0.75360  0.68850  0.28060  1.0000
  O   O43       1.0  0.25360  0.81150  0.78060  1.0000
  O   O44       1.0  0.24640  0.31150  0.71940  1.0000
  C   C1        1.0  0.72460  0.11650  0.89820  1.0000
  C   C2        1.0  0.77540  0.61650  0.60180  1.0000
  C   C3        1.0  0.27540  0.88350  0.10180  1.0000
  C   C4        1.0  0.22460  0.38350  0.39820  1.0000
  C   C5        1.0  0.46630  0.05820  0.83860  1.0000
  C   C6        1.0  0.03370  0.55820  0.66140  1.0000
  C   C7        1.0  0.53370  0.94180  0.16140  1.0000
  C   C8        1.0  0.96630  0.44180  0.33860  1.0000
  C   C9        1.0  0.66000  0.12160  0.96510  1.0000
  C   C10       1.0  0.84000  0.62160  0.53490  1.0000
  C   C11       1.0  0.34000  0.87840  0.03490  1.0000
  C   C12       1.0  0.16000  0.37840  0.46510  1.0000
  C   C13       1.0  0.54000  0.09910  0.93580  1.0000
  C   C14       1.0  0.96000  0.59910  0.56420  1.0000
  C   C15       1.0  0.46000  0.90090  0.06420  1.0000
  C   C16       1.0  0.04000  0.40090  0.43580  1.0000
  C   C17       1.0  0.49080  0.10960  0.00480  1.0000
  C   C18       1.0  0.00920  0.60960  0.49520  1.0000
  C   C19       1.0  0.50920  0.89040  0.99520  1.0000
  C   C20       1.0  0.99080  0.39040  0.50480  1.0000
  H   H1        1.0  0.41130  0.09640  0.98610  1.0000
  H   H2        1.0  0.08870  0.59640  0.51390  1.0000
  H   H3        1.0  0.58870  0.90360  0.01390  1.0000
  H   H4        1.0  0.91130  0.40360  0.48610  1.0000
  C   C21       1.0  0.55560  0.13870  0.09930  1.0000
  C   C22       1.0  0.94440  0.63870  0.40070  1.0000
  C   C23       1.0  0.44440  0.86130  0.90070  1.0000
  C   C24       1.0  0.05560  0.36130  0.59930  1.0000
  H   H5        1.0  0.52080  0.14430  0.14410  1.0000
  H   H6        1.0  0.97920  0.64430  0.35590  1.0000
  H   H7        1.0  0.47920  0.85570  0.85590  1.0000
  H   H8        1.0  0.02080  0.35570  0.64410  1.0000
  C   C25       1.0  0.67190  0.15920  0.12660  1.0000
  C   C26       1.0  0.82810  0.65920  0.37340  1.0000
  C   C27       1.0  0.32810  0.84080  0.87340  1.0000
  C   C28       1.0  0.17190  0.34080  0.62660  1.0000
  C   C29       1.0  0.72400  0.15080  0.06030  1.0000
  C   C30       1.0  0.77600  0.65080  0.43970  1.0000
  C   C31       1.0  0.27600  0.84920  0.93970  1.0000
  C   C32       1.0  0.22400  0.34920  0.56030  1.0000
  H   H9        1.0  0.80330  0.16520  0.08010  1.0000
  H   H10       1.0  0.69670  0.66520  0.41990  1.0000
  H   H11       1.0  0.19670  0.83480  0.91990  1.0000
  H   H12       1.0  0.30330  0.33480  0.58010  1.0000
  C   C33       1.0  0.63270  0.24120  0.54940  1.0000
  C   C34       1.0  0.86730  0.74120  0.95060  1.0000
  C   C35       1.0  0.36730  0.75880  0.45060  1.0000
  C   C36       1.0  0.13270  0.25880  0.04940  1.0000
  C   C37       1.0  0.57420  0.08010  0.44170  1.0000
  C   C38       1.0  0.92580  0.58010  0.05830  1.0000
  C   C39       1.0  0.42580  0.91990  0.55830  1.0000
  C   C40       1.0  0.07420  0.41990  0.94170  1.0000
  C   C41       1.0  0.65450  0.22400  0.45910  1.0000
  C   C42       1.0  0.84550  0.72400  0.04090  1.0000
  C   C43       1.0  0.34550  0.77600  0.54090  1.0000
  C   C44       1.0  0.15450  0.27600  0.95910  1.0000
  C   C45       1.0  0.63370  0.14770  0.41090  1.0000
  C   C46       1.0  0.86630  0.64770  0.08910  1.0000
  C   C47       1.0  0.36630  0.85230  0.58910  1.0000
  C   C48       1.0  0.13370  0.35230  0.91090  1.0000
  C   C49       1.0  0.66250  0.13560  0.33040  1.0000
  C   C50       1.0  0.83750  0.63560  0.16960  1.0000
  C   C51       1.0  0.33750  0.86440  0.66960  1.0000
  C   C52       1.0  0.16250  0.36440  0.83040  1.0000
  H   H13       1.0  0.65100  0.08500  0.30010  1.0000
  H   H14       1.0  0.84900  0.58500  0.19990  1.0000
  H   H15       1.0  0.34900  0.91500  0.69990  1.0000
  H   H16       1.0  0.15100  0.41500  0.80010  1.0000
  C   C53       1.0  0.70820  0.19830  0.29520  1.0000
  C   C54       1.0  0.79180  0.69830  0.20480  1.0000
  C   C55       1.0  0.29180  0.80170  0.70480  1.0000
  C   C56       1.0  0.20820  0.30170  0.79520  1.0000
  C   C57       1.0  0.72780  0.27330  0.34070  1.0000
  C   C58       1.0  0.77220  0.77330  0.15930  1.0000
  C   C59       1.0  0.27220  0.72670  0.65930  1.0000
  C   C60       1.0  0.22780  0.22670  0.84070  1.0000
  H   H17       1.0  0.75850  0.31550  0.31660  1.0000
  H   H18       1.0  0.74150  0.81550  0.18340  1.0000
  H   H19       1.0  0.24150  0.68450  0.68340  1.0000
  H   H20       1.0  0.25850  0.18450  0.81660  1.0000
  C   C61       1.0  0.70190  0.28560  0.42210  1.0000
  C   C62       1.0  0.79810  0.78560  0.07790  1.0000
  C   C63       1.0  0.29810  0.71440  0.57790  1.0000
  C   C64       1.0  0.20190  0.21440  0.92210  1.0000
  H   H21       1.0  0.71640  0.33610  0.45300  1.0000
  H   H22       1.0  0.78360  0.83610  0.04700  1.0000
  H   H23       1.0  0.28360  0.66390  0.54700  1.0000
  H   H24       1.0  0.21640  0.16390  0.95300  1.0000
