data_image0
_chemical_formula_structural       U2O22C10H2C2H2C4H2C8H2C4H2C2H2C2
_chemical_formula_sum              "U2 O22 C32 H12"
_cell_length_a       8.991
_cell_length_b       11.589
_cell_length_c       13.497
_cell_angle_alpha    92.145
_cell_angle_beta     101.517
_cell_angle_gamma    97.816

_space_group_name_H-M_alt    "P 1"
_space_group_IT_number       1

loop_
  _space_group_symop_operation_xyz
  'x, y, z'

loop_
  _atom_site_type_symbol
  _atom_site_label
  _atom_site_symmetry_multiplicity
  _atom_site_fract_x
  _atom_site_fract_y
  _atom_site_fract_z
  _atom_site_occupancy
  U   U1        1.0  0.38454  0.36401  0.83566  1.0000
  U   U2        1.0  0.61546  0.63599  0.16434  1.0000
  O   O1        1.0  0.24730  0.35810  0.91270  1.0000
  O   O2        1.0  0.75270  0.64190  0.08730  1.0000
  O   O3        1.0  0.52490  0.37490  0.76070  1.0000
  O   O4        1.0  0.47510  0.62510  0.23930  1.0000
  O   O5        1.0  0.43520  0.57060  0.86770  1.0000
  O   O6        1.0  0.56480  0.42940  0.13230  1.0000
  O   O7        1.0  0.40140  0.60940  0.02340  1.0000
  O   O8        1.0  0.59860  0.39060  0.97660  1.0000
  O   O9        1.0  0.54680  0.81510  0.10920  1.0000
  O   O10       1.0  0.45320  0.18490  0.89080  1.0000
  O   O11       1.0  0.34340  0.88920  0.14160  1.0000
  O   O12       1.0  0.65660  0.11080  0.85840  1.0000
  O   O13       1.0  0.77140  0.78350  0.27650  1.0000
  O   O14       1.0  0.22860  0.21650  0.72350  1.0000
  O   O15       1.0  0.01920  0.83840  0.28440  1.0000
  O   O16       1.0  0.98080  0.16160  0.71560  1.0000
  O   O17       1.0  0.77810  0.55360  0.29030  1.0000
  O   O18       1.0  0.22190  0.44640  0.70970  1.0000
  O   O19       1.0  0.67250  0.48770  0.41670  1.0000
  O   O20       1.0  0.32750  0.51230  0.58330  1.0000
  O   O21       1.0  0.19460  0.87450  0.66140  1.0000
  O   O22       1.0  0.80540  0.12550  0.33860  1.0000
  C   C1        1.0  0.40360  0.63660  0.93380  1.0000
  C   C2        1.0  0.59640  0.36340  0.06620  1.0000
  C   C3        1.0  0.41780  0.84790  0.08260  1.0000
  C   C4        1.0  0.58220  0.15210  0.91740  1.0000
  C   C5        1.0  0.35390  0.75050  0.90070  1.0000
  C   C6        1.0  0.64610  0.24950  0.09930  1.0000
  C   C7        1.0  0.34850  0.84280  0.97030  1.0000
  C   C8        1.0  0.65150  0.15720  0.02970  1.0000
  C   C9        1.0  0.28800  0.94090  0.93360  1.0000
  C   C10       1.0  0.71200  0.05910  0.06640  1.0000
  H   H1        1.0  0.28460  0.00230  0.97910  1.0000
  H   H2        1.0  0.71540  0.99770  0.02090  1.0000
  C   C11       1.0  0.23230  0.94940  0.83020  1.0000
  C   C12       1.0  0.76770  0.05060  0.16980  1.0000
  H   H3        1.0  0.19060  0.01490  0.80670  1.0000
  H   H4        1.0  0.80940  0.98510  0.19330  1.0000
  C   C13       1.0  0.24070  0.85820  0.76370  1.0000
  C   C14       1.0  0.75930  0.14180  0.23630  1.0000
  C   C15       1.0  0.30190  0.75990  0.79840  1.0000
  C   C16       1.0  0.69810  0.24010  0.20160  1.0000
  H   H5        1.0  0.30790  0.69990  0.75230  1.0000
  H   H6        1.0  0.69210  0.30010  0.24770  1.0000
  C   C17       1.0  0.91240  0.79200  0.31990  1.0000
  C   C18       1.0  0.08760  0.20800  0.68010  1.0000
  C   C19       1.0  0.76410  0.55580  0.38360  1.0000
  C   C20       1.0  0.23590  0.44420  0.61640  1.0000
  C   C21       1.0  0.94730  0.74960  0.42640  1.0000
  C   C22       1.0  0.05270  0.25040  0.57360  1.0000
  C   C23       1.0  0.05400  0.82200  0.49790  1.0000
  C   C24       1.0  0.94600  0.17800  0.50210  1.0000
  H   H7        1.0  0.10540  0.88990  0.47860  1.0000
  H   H8        1.0  0.89460  0.11010  0.52140  1.0000
  C   C25       1.0  0.08520  0.79430  0.59850  1.0000
  C   C26       1.0  0.91480  0.20570  0.40150  1.0000
  C   C27       1.0  0.00840  0.69650  0.63000  1.0000
  C   C28       1.0  0.99160  0.30350  0.37000  1.0000
  H   H9        1.0  0.02650  0.68010  0.69790  1.0000
  H   H10       1.0  0.97350  0.31990  0.30210  1.0000
  C   C29       1.0  0.90360  0.62300  0.55820  1.0000
  C   C30       1.0  0.09640  0.37700  0.44180  1.0000
  H   H11       1.0  0.85230  0.55590  0.57890  1.0000
  H   H12       1.0  0.14770  0.44410  0.42110  1.0000
  C   C31       1.0  0.87170  0.64570  0.45560  1.0000
  C   C32       1.0  0.12830  0.35430  0.54440  1.0000
