data_image0
_chemical_formula_structural       U8O56C16H4C8H4C4H4C12H4C4H4C12H4C8
_chemical_formula_sum              "U8 O56 C64 H24"
_cell_length_a       15.8932
_cell_length_b       9.6528
_cell_length_c       20.5316
_cell_angle_alpha    90
_cell_angle_beta     99.859
_cell_angle_gamma    90

_space_group_name_H-M_alt    "P 1"
_space_group_IT_number       1

loop_
  _space_group_symop_operation_xyz
  'x, y, z'

loop_
  _atom_site_type_symbol
  _atom_site_label
  _atom_site_symmetry_multiplicity
  _atom_site_fract_x
  _atom_site_fract_y
  _atom_site_fract_z
  _atom_site_occupancy
  U   U1        1.0  0.39875  0.45891  0.13488  1.0000
  U   U2        1.0  0.10125  0.95891  0.36512  1.0000
  U   U3        1.0  0.60125  0.54109  0.86512  1.0000
  U   U4        1.0  0.89875  0.04109  0.63488  1.0000
  U   U5        1.0  0.60225  0.53412  0.05648  1.0000
  U   U6        1.0  0.89775  0.03412  0.44352  1.0000
  U   U7        1.0  0.39775  0.46588  0.94352  1.0000
  U   U8        1.0  0.10225  0.96588  0.55648  1.0000
  O   O1        1.0  0.46380  0.48290  0.04980  1.0000
  O   O2        1.0  0.03620  0.98290  0.45020  1.0000
  O   O3        1.0  0.53620  0.51710  0.95020  1.0000
  O   O4        1.0  0.96380  0.01710  0.54980  1.0000
  O   O5        1.0  0.57750  0.71260  0.05660  1.0000
  O   O6        1.0  0.92250  0.21260  0.44340  1.0000
  O   O7        1.0  0.42250  0.28740  0.94340  1.0000
  O   O8        1.0  0.07750  0.78740  0.55660  1.0000
  O   O9        1.0  0.63560  0.36100  0.06120  1.0000
  O   O10       1.0  0.86440  0.86100  0.43880  1.0000
  O   O11       1.0  0.36440  0.63900  0.93880  1.0000
  O   O12       1.0  0.13560  0.13900  0.56120  1.0000
  O   O13       1.0  0.38010  0.63780  0.13740  1.0000
  O   O14       1.0  0.11990  0.13780  0.36260  1.0000
  O   O15       1.0  0.61990  0.36220  0.86260  1.0000
  O   O16       1.0  0.88010  0.86220  0.63740  1.0000
  O   O17       1.0  0.41450  0.27690  0.13440  1.0000
  O   O18       1.0  0.08550  0.77690  0.36560  1.0000
  O   O19       1.0  0.58550  0.72310  0.86560  1.0000
  O   O20       1.0  0.91450  0.22310  0.63440  1.0000
  O   O21       1.0  0.29620  0.45290  0.03120  1.0000
  O   O22       1.0  0.20380  0.95290  0.46880  1.0000
  O   O23       1.0  0.70380  0.54710  0.96880  1.0000
  O   O24       1.0  0.79620  0.04710  0.53120  1.0000
  O   O25       1.0  0.24250  0.39270  0.93270  1.0000
  O   O26       1.0  0.25750  0.89270  0.56730  1.0000
  O   O27       1.0  0.75750  0.60730  0.06730  1.0000
  O   O28       1.0  0.74250  0.10730  0.43270  1.0000
  O   O29       1.0  0.26020  0.41020  0.15380  1.0000
  O   O30       1.0  0.23980  0.91020  0.34620  1.0000
  O   O31       1.0  0.73980  0.58980  0.84620  1.0000
  O   O32       1.0  0.76020  0.08980  0.65380  1.0000
  O   O33       1.0  0.16360  0.57150  0.16010  1.0000
  O   O34       1.0  0.33640  0.07150  0.33990  1.0000
  O   O35       1.0  0.83640  0.42850  0.83990  1.0000
  O   O36       1.0  0.66360  0.92850  0.66010  1.0000
  O   O37       1.0  0.90550  0.29580  0.04910  1.0000
  O   O38       1.0  0.59450  0.79580  0.45090  1.0000
  O   O39       1.0  0.09450  0.70420  0.95090  1.0000
  O   O40       1.0  0.40550  0.20420  0.54910  1.0000
  O   O41       1.0  0.98790  0.82630  0.17790  1.0000
  O   O42       1.0  0.51210  0.32630  0.32210  1.0000
  O   O43       1.0  0.01210  0.17370  0.82210  1.0000
  O   O44       1.0  0.48790  0.67370  0.67790  1.0000
  O   O45       1.0  0.07450  0.95540  0.24770  1.0000
  O   O46       1.0  0.42550  0.45540  0.25230  1.0000
  O   O47       1.0  0.92550  0.04460  0.75230  1.0000
  O   O48       1.0  0.57450  0.54460  0.74770  1.0000
  O   O49       1.0  0.94880  0.98870  0.32820  1.0000
  O   O50       1.0  0.55120  0.48870  0.17180  1.0000
  O   O51       1.0  0.05120  0.01130  0.67180  1.0000
  O   O52       1.0  0.44880  0.51130  0.82820  1.0000
  O   O53       1.0  0.82380  0.08540  0.32390  1.0000
  O   O54       1.0  0.67620  0.58540  0.17610  1.0000
  O   O55       1.0  0.17620  0.91460  0.67610  1.0000
  O   O56       1.0  0.32380  0.41460  0.82390  1.0000
  C   C1        1.0  0.23360  0.40750  0.99180  1.0000
  C   C2        1.0  0.26640  0.90750  0.50820  1.0000
  C   C3        1.0  0.76640  0.59250  0.00820  1.0000
  C   C4        1.0  0.73360  0.09250  0.49180  1.0000
  C   C5        1.0  0.15100  0.38030  0.01270  1.0000
  C   C6        1.0  0.34900  0.88030  0.48730  1.0000
  C   C7        1.0  0.84900  0.61970  0.98730  1.0000
  C   C8        1.0  0.65100  0.11970  0.51270  1.0000
  C   C9        1.0  0.13000  0.40820  0.07570  1.0000
  C   C10       1.0  0.37000  0.90820  0.42430  1.0000
  C   C11       1.0  0.87000  0.59180  0.92430  1.0000
  C   C12       1.0  0.63000  0.09180  0.57570  1.0000
  C   C13       1.0  0.04810  0.37890  0.08570  1.0000
  C   C14       1.0  0.45190  0.87890  0.41430  1.0000
  C   C15       1.0  0.95190  0.62110  0.91430  1.0000
  C   C16       1.0  0.54810  0.12110  0.58570  1.0000
  H   H1        1.0  0.03340  0.39860  0.12670  1.0000
  H   H2        1.0  0.46660  0.89860  0.37330  1.0000
  H   H3        1.0  0.96660  0.60140  0.87330  1.0000
  H   H4        1.0  0.53340  0.10140  0.62670  1.0000
  C   C17       1.0  0.98850  0.32260  0.03790  1.0000
  C   C18       1.0  0.51150  0.82260  0.46210  1.0000
  C   C19       1.0  0.01150  0.67740  0.96210  1.0000
  C   C20       1.0  0.48850  0.17740  0.53790  1.0000
  C   C21       1.0  0.00750  0.29430  0.97640  1.0000
  C   C22       1.0  0.49250  0.79430  0.52360  1.0000
  C   C23       1.0  0.99250  0.70570  0.02360  1.0000
  C   C24       1.0  0.50750  0.20570  0.47640  1.0000
  H   H5        1.0  0.96690  0.25450  0.94370  1.0000
  H   H6        1.0  0.53310  0.75450  0.55630  1.0000
  H   H7        1.0  0.03310  0.74550  0.05630  1.0000
  H   H8        1.0  0.46690  0.24550  0.44370  1.0000
  C   C25       1.0  0.08760  0.32610  0.96400  1.0000
  C   C26       1.0  0.41240  0.82610  0.53600  1.0000
  C   C27       1.0  0.91240  0.67390  0.03600  1.0000
  C   C28       1.0  0.58760  0.17390  0.46400  1.0000
  H   H9        1.0  0.09990  0.31090  0.92190  1.0000
  H   H10       1.0  0.40010  0.81090  0.57810  1.0000
  H   H11       1.0  0.90010  0.68910  0.07810  1.0000
  H   H12       1.0  0.59990  0.18910  0.42190  1.0000
  C   C29       1.0  0.18870  0.46950  0.13340  1.0000
  C   C30       1.0  0.31130  0.96950  0.36660  1.0000
  C   C31       1.0  0.81130  0.53050  0.86660  1.0000
  C   C32       1.0  0.68870  0.03050  0.63340  1.0000
  C   C33       1.0  0.90120  0.23190  0.11030  1.0000
  C   C34       1.0  0.59880  0.73190  0.38970  1.0000
  C   C35       1.0  0.09880  0.76810  0.88970  1.0000
  C   C36       1.0  0.40120  0.26810  0.61030  1.0000
  C   C37       1.0  0.84380  0.28350  0.14580  1.0000
  C   C38       1.0  0.65620  0.78350  0.35420  1.0000
  C   C39       1.0  0.15620  0.71650  0.85420  1.0000
  C   C40       1.0  0.34380  0.21650  0.64580  1.0000
  H   H13       1.0  0.80990  0.35940  0.13080  1.0000
  H   H14       1.0  0.69010  0.85940  0.36920  1.0000
  H   H15       1.0  0.19010  0.64060  0.86920  1.0000
  H   H16       1.0  0.30990  0.14060  0.63080  1.0000
  C   C41       1.0  0.83730  0.22050  0.20470  1.0000
  C   C42       1.0  0.66270  0.72050  0.29530  1.0000
  C   C43       1.0  0.16270  0.77950  0.79530  1.0000
  C   C44       1.0  0.33730  0.27950  0.70470  1.0000
  H   H17       1.0  0.79660  0.25180  0.22890  1.0000
  H   H18       1.0  0.70340  0.75180  0.27110  1.0000
  H   H19       1.0  0.20340  0.74820  0.77110  1.0000
  H   H20       1.0  0.29660  0.24820  0.72890  1.0000
  C   C45       1.0  0.89040  0.11040  0.22910  1.0000
  C   C46       1.0  0.60960  0.61040  0.27090  1.0000
  C   C47       1.0  0.10960  0.88960  0.77090  1.0000
  C   C48       1.0  0.39040  0.38960  0.72910  1.0000
  C   C49       1.0  0.94780  0.05720  0.19070  1.0000
  C   C50       1.0  0.55220  0.55720  0.30930  1.0000
  C   C51       1.0  0.05220  0.94280  0.80930  1.0000
  C   C52       1.0  0.44780  0.44280  0.69070  1.0000
  C   C53       1.0  0.95120  0.11920  0.13010  1.0000
  C   C54       1.0  0.54880  0.61920  0.36990  1.0000
  C   C55       1.0  0.04880  0.88080  0.86990  1.0000
  C   C56       1.0  0.45120  0.38080  0.63010  1.0000
  H   H21       1.0  0.98740  0.08410  0.10300  1.0000
  H   H22       1.0  0.51260  0.58410  0.39700  1.0000
  H   H23       1.0  0.01260  0.91590  0.89700  1.0000
  H   H24       1.0  0.48740  0.41590  0.60300  1.0000
  C   C57       1.0  0.88520  0.05840  0.29640  1.0000
  C   C58       1.0  0.61480  0.55840  0.20360  1.0000
  C   C59       1.0  0.11480  0.94160  0.70360  1.0000
  C   C60       1.0  0.38520  0.44160  0.79640  1.0000
  C   C61       1.0  0.00620  0.93360  0.20730  1.0000
  C   C62       1.0  0.49380  0.43360  0.29270  1.0000
  C   C63       1.0  0.99380  0.06640  0.79270  1.0000
  C   C64       1.0  0.50620  0.56640  0.70730  1.0000
