data_image0
_chemical_formula_structural       U4O8C6H2C4H2C4H2C2O4N2H4O8C6H2C4H2C4H2C2O4N2H4O2H4
_chemical_formula_sum              "U4 O26 C32 H24 N4"
_cell_length_a       9.6416
_cell_length_b       10.973
_cell_length_c       15.997
_cell_angle_alpha    109.52
_cell_angle_beta     91.56
_cell_angle_gamma    109.61

_space_group_name_H-M_alt    "P 1"
_space_group_IT_number       1

loop_
  _space_group_symop_operation_xyz
  'x, y, z'

loop_
  _atom_site_type_symbol
  _atom_site_label
  _atom_site_symmetry_multiplicity
  _atom_site_fract_x
  _atom_site_fract_y
  _atom_site_fract_z
  _atom_site_occupancy
  U   U1        1.0  0.10097  0.29971  0.37978  1.0000
  U   U2        1.0  0.89903  0.70029  0.62022  1.0000
  U   U3        1.0  0.85495  0.82900  0.99680  1.0000
  U   U4        1.0  0.14505  0.17100  0.00320  1.0000
  O   O1        1.0  0.93970  0.23650  0.30670  1.0000
  O   O2        1.0  0.06030  0.76350  0.69330  1.0000
  O   O3        1.0  0.26460  0.36090  0.45310  1.0000
  O   O4        1.0  0.73540  0.63910  0.54690  1.0000
  O   O5        1.0  0.14500  0.09110  0.28580  1.0000
  O   O6        1.0  0.85500  0.90890  0.71420  1.0000
  O   O7        1.0  0.03790  0.08000  0.40300  1.0000
  O   O8        1.0  0.96210  0.92000  0.59700  1.0000
  C   C1        1.0  0.08860  0.02420  0.33300  1.0000
  C   C2        1.0  0.91140  0.97580  0.66700  1.0000
  C   C3        1.0  0.08450  0.87980  0.31240  1.0000
  C   C4        1.0  0.91550  0.12020  0.68760  1.0000
  C   C5        1.0  0.09380  0.80220  0.22640  1.0000
  C   C6        1.0  0.90620  0.19780  0.77360  1.0000
  H   H1        1.0  0.10330  0.84200  0.18290  1.0000
  H   H2        1.0  0.89670  0.15800  0.81710  1.0000
  C   C7        1.0  0.08970  0.66770  0.20220  1.0000
  C   C8        1.0  0.91030  0.33230  0.79780  1.0000
  C   C9        1.0  0.07420  0.60680  0.26740  1.0000
  C   C10       1.0  0.92580  0.39320  0.73260  1.0000
  H   H3        1.0  0.06500  0.51470  0.25240  1.0000
  H   H4        1.0  0.93500  0.48530  0.74760  1.0000
  C   C11       1.0  0.07280  0.68790  0.35540  1.0000
  C   C12       1.0  0.92720  0.31210  0.64460  1.0000
  C   C13       1.0  0.07350  0.82110  0.37930  1.0000
  C   C14       1.0  0.92650  0.17890  0.62070  1.0000
  H   H5        1.0  0.06680  0.87080  0.43790  1.0000
  H   H6        1.0  0.93320  0.12920  0.56210  1.0000
  C   C15       1.0  0.07100  0.62680  0.43040  1.0000
  C   C16       1.0  0.92900  0.37320  0.56960  1.0000
  O   O9        1.0  0.03230  0.68370  0.49970  1.0000
  O   O10       1.0  0.96770  0.31630  0.50030  1.0000
  O   O11       1.0  0.10370  0.52270  0.41360  1.0000
  O   O12       1.0  0.89630  0.47730  0.58640  1.0000
  N   N1        1.0  0.08900  0.58840  0.11420  1.0000
  N   N2        1.0  0.91100  0.41160  0.88580  1.0000
  H   H7        1.0  0.09120  0.62270  0.07290  1.0000
  H   H8        1.0  0.90880  0.37730  0.92710  1.0000
  H   H9        1.0  0.08640  0.50490  0.10070  1.0000
  H   H10       1.0  0.91360  0.49510  0.89930  1.0000
  O   O13       1.0  0.99590  0.76990  0.01470  1.0000
  O   O14       1.0  0.00410  0.23010  0.98530  1.0000
  O   O15       1.0  0.71110  0.88090  0.97680  1.0000
  O   O16       1.0  0.28890  0.11910  0.02320  1.0000
  O   O17       1.0  0.67680  0.65580  0.04730  1.0000
  O   O18       1.0  0.32320  0.34420  0.95270  1.0000
  O   O19       1.0  0.80170  0.85790  0.14910  1.0000
  O   O20       1.0  0.19830  0.14210  0.85090  1.0000
  C   C17       1.0  0.70760  0.73750  0.12830  1.0000
  C   C18       1.0  0.29240  0.26250  0.87170  1.0000
  C   C19       1.0  0.62650  0.69720  0.19810  1.0000
  C   C20       1.0  0.37350  0.30280  0.80190  1.0000
  C   C21       1.0  0.68460  0.77620  0.28490  1.0000
  C   C22       1.0  0.31540  0.22380  0.71510  1.0000
  H   H11       1.0  0.76970  0.85590  0.29910  1.0000
  H   H12       1.0  0.23030  0.14410  0.70090  1.0000
  C   C23       1.0  0.61600  0.73800  0.35480  1.0000
  C   C24       1.0  0.38400  0.26200  0.64520  1.0000
  C   C25       1.0  0.48740  0.62020  0.33080  1.0000
  C   C26       1.0  0.51260  0.37980  0.66920  1.0000
  H   H13       1.0  0.43920  0.59440  0.37520  1.0000
  H   H14       1.0  0.56080  0.40560  0.62480  1.0000
  C   C27       1.0  0.42980  0.53980  0.24040  1.0000
  C   C28       1.0  0.57020  0.46020  0.75960  1.0000
  C   C29       1.0  0.50000  0.57860  0.17440  1.0000
  C   C30       1.0  0.50000  0.42140  0.82560  1.0000
  H   H15       1.0  0.46220  0.52520  0.11420  1.0000
  H   H16       1.0  0.53780  0.47480  0.88580  1.0000
  C   C31       1.0  0.29010  0.41130  0.21600  1.0000
  C   C32       1.0  0.70990  0.58870  0.78400  1.0000
  O   O21       1.0  0.22450  0.36050  0.13890  1.0000
  O   O22       1.0  0.77550  0.63950  0.86110  1.0000
  O   O23       1.0  0.24370  0.36790  0.27700  1.0000
  O   O24       1.0  0.75630  0.63210  0.72300  1.0000
  N   N3        1.0  0.67840  0.81680  0.44280  1.0000
  N   N4        1.0  0.32160  0.18320  0.55720  1.0000
  H   H17       1.0  0.63780  0.79360  0.48510  1.0000
  H   H18       1.0  0.36220  0.20640  0.51490  1.0000
  H   H19       1.0  0.75830  0.88940  0.45560  1.0000
  H   H20       1.0  0.24170  0.11060  0.54440  1.0000
  O   O25       1.0  0.00230  0.94390  0.91360  1.0000
  O   O26       1.0  0.99770  0.05610  0.08640  1.0000
  H   H21       1.0  0.04710  0.91050  0.87810  1.0000
  H   H22       1.0  0.95290  0.08950  0.12190  1.0000
  H   H23       1.0  0.95020  0.94360  0.87370  1.0000
  H   H24       1.0  0.04980  0.05640  0.12630  1.0000
