data_image0
_chemical_formula_structural       Mn4O36N8C12H4C4H4C8H4C16H4C4H4C8H4C4H8
_chemical_formula_sum              "Mn4 O36 N8 C56 H32"
_cell_length_a       13.192
_cell_length_b       12.142
_cell_length_c       13.791
_cell_angle_alpha    90
_cell_angle_beta     100.761
_cell_angle_gamma    90

_space_group_name_H-M_alt    "P 1"
_space_group_IT_number       1

loop_
  _space_group_symop_operation_xyz
  'x, y, z'

loop_
  _atom_site_type_symbol
  _atom_site_label
  _atom_site_symmetry_multiplicity
  _atom_site_fract_x
  _atom_site_fract_y
  _atom_site_fract_z
  _atom_site_occupancy
  Mn  Mn1       1.0  0.33988  0.08890  0.83478  1.0000
  Mn  Mn2       1.0  0.66012  0.58890  0.66522  1.0000
  Mn  Mn3       1.0  0.66012  0.91110  0.16522  1.0000
  Mn  Mn4       1.0  0.33988  0.41110  0.33478  1.0000
  O   O1        1.0  0.31109  0.06077  0.98253  1.0000
  O   O2        1.0  0.68891  0.56077  0.51747  1.0000
  O   O3        1.0  0.68891  0.93923  0.01747  1.0000
  O   O4        1.0  0.31109  0.43923  0.48253  1.0000
  O   O5        1.0  0.19659  0.01017  0.77252  1.0000
  O   O6        1.0  0.80341  0.51017  0.72748  1.0000
  O   O7        1.0  0.80341  0.98983  0.22748  1.0000
  O   O8        1.0  0.19659  0.48983  0.27252  1.0000
  O   O9        1.0  0.66919  0.76299  0.89511  1.0000
  O   O10       1.0  0.33081  0.26299  0.60489  1.0000
  O   O11       1.0  0.33081  0.23701  0.10489  1.0000
  O   O12       1.0  0.66919  0.73701  0.39511  1.0000
  O   O13       1.0  0.27238  0.25021  0.82865  1.0000
  O   O14       1.0  0.72762  0.75021  0.67135  1.0000
  O   O15       1.0  0.72762  0.74979  0.17135  1.0000
  O   O16       1.0  0.27238  0.24979  0.32865  1.0000
  O   O17       1.0  0.11640  0.84964  0.73603  1.0000
  O   O18       1.0  0.88360  0.34964  0.76397  1.0000
  O   O19       1.0  0.88360  0.15036  0.26397  1.0000
  O   O20       1.0  0.11640  0.65036  0.23603  1.0000
  O   O21       1.0  0.61029  0.61532  0.80768  1.0000
  O   O22       1.0  0.38971  0.11532  0.69232  1.0000
  O   O23       1.0  0.38971  0.38468  0.19232  1.0000
  O   O24       1.0  0.61029  0.88468  0.30768  1.0000
  O   O25       1.0  0.30390  0.42863  0.85580  1.0000
  O   O26       1.0  0.69610  0.92863  0.64420  1.0000
  O   O27       1.0  0.69610  0.57137  0.14420  1.0000
  O   O28       1.0  0.30390  0.07137  0.35580  1.0000
  O   O29       1.0  0.78392  0.12360  0.97889  1.0000
  O   O30       1.0  0.21608  0.62360  0.52111  1.0000
  O   O31       1.0  0.21608  0.87640  0.02111  1.0000
  O   O32       1.0  0.78392  0.37640  0.47889  1.0000
  O   O33       1.0  0.82415  0.30025  0.99861  1.0000
  O   O34       1.0  0.17585  0.80025  0.50139  1.0000
  O   O35       1.0  0.17585  0.69975  0.00139  1.0000
  O   O36       1.0  0.82415  0.19975  0.49861  1.0000
  N   N1        1.0  0.47112  0.20041  0.90150  1.0000
  N   N2        1.0  0.52888  0.70041  0.59850  1.0000
  N   N3        1.0  0.52888  0.79959  0.09850  1.0000
  N   N4        1.0  0.47112  0.29959  0.40150  1.0000
  N   N5        1.0  0.37999  0.91110  0.82217  1.0000
  N   N6        1.0  0.62001  0.41110  0.67783  1.0000
  N   N7        1.0  0.62001  0.08890  0.17783  1.0000
  N   N8        1.0  0.37999  0.58890  0.32217  1.0000
  C   C1        1.0  0.33013  0.33160  0.85670  1.0000
  C   C2        1.0  0.66987  0.83160  0.64330  1.0000
  C   C3        1.0  0.66987  0.66840  0.14330  1.0000
  C   C4        1.0  0.33013  0.16840  0.35670  1.0000
  C   C5        1.0  0.44363  0.30733  0.89410  1.0000
  C   C6        1.0  0.55637  0.80733  0.60590  1.0000
  C   C7        1.0  0.55637  0.69267  0.10590  1.0000
  C   C8        1.0  0.44363  0.19267  0.39410  1.0000
  C   C9        1.0  0.51510  0.39070  0.91640  1.0000
  C   C10       1.0  0.48490  0.89070  0.58360  1.0000
  C   C11       1.0  0.48490  0.60930  0.08360  1.0000
  C   C12       1.0  0.51510  0.10930  0.41640  1.0000
  H   H1        1.0  0.49400  0.46390  0.91140  1.0000
  H   H2        1.0  0.50600  0.96390  0.58860  1.0000
  H   H3        1.0  0.50600  0.53610  0.08860  1.0000
  H   H4        1.0  0.49400  0.03610  0.41140  1.0000
  C   C13       1.0  0.61808  0.36490  0.94606  1.0000
  C   C14       1.0  0.38192  0.86490  0.55394  1.0000
  C   C15       1.0  0.38192  0.63510  0.05394  1.0000
  C   C16       1.0  0.61808  0.13510  0.44606  1.0000
  H   H5        1.0  0.66700  0.42060  0.96080  1.0000
  H   H6        1.0  0.33300  0.92060  0.53920  1.0000
  H   H7        1.0  0.33300  0.57940  0.03920  1.0000
  H   H8        1.0  0.66700  0.07940  0.46080  1.0000
  C   C17       1.0  0.64807  0.25550  0.95378  1.0000
  C   C18       1.0  0.35193  0.75550  0.54622  1.0000
  C   C19       1.0  0.35193  0.74450  0.04622  1.0000
  C   C20       1.0  0.64807  0.24450  0.45378  1.0000
  C   C21       1.0  0.57123  0.17665  0.93130  1.0000
  C   C22       1.0  0.42877  0.67665  0.56870  1.0000
  C   C23       1.0  0.42877  0.82335  0.06870  1.0000
  C   C24       1.0  0.57123  0.32335  0.43130  1.0000
  H   H9        1.0  0.59030  0.10290  0.93730  1.0000
  H   H10       1.0  0.40970  0.60290  0.56270  1.0000
  H   H11       1.0  0.40970  0.89710  0.06270  1.0000
  H   H12       1.0  0.59030  0.39710  0.43730  1.0000
  C   C25       1.0  0.76019  0.22270  0.98006  1.0000
  C   C26       1.0  0.23981  0.72270  0.51994  1.0000
  C   C27       1.0  0.23981  0.77730  0.01994  1.0000
  C   C28       1.0  0.76019  0.27730  0.48006  1.0000
  C   C29       1.0  0.19380  0.90450  0.76368  1.0000
  C   C30       1.0  0.80620  0.40450  0.73632  1.0000
  C   C31       1.0  0.80620  0.09550  0.23632  1.0000
  C   C32       1.0  0.19380  0.59550  0.26368  1.0000
  C   C33       1.0  0.29751  0.84661  0.79067  1.0000
  C   C34       1.0  0.70249  0.34661  0.70933  1.0000
  C   C35       1.0  0.70249  0.15339  0.20933  1.0000
  C   C36       1.0  0.29751  0.65339  0.29067  1.0000
  C   C37       1.0  0.30630  0.73390  0.78106  1.0000
  C   C38       1.0  0.69370  0.23390  0.71894  1.0000
  C   C39       1.0  0.69370  0.26610  0.21894  1.0000
  C   C40       1.0  0.30630  0.76610  0.28106  1.0000
  H   H13       1.0  0.24780  0.69060  0.76180  1.0000
  H   H14       1.0  0.75220  0.19060  0.73820  1.0000
  H   H15       1.0  0.75220  0.30940  0.23820  1.0000
  H   H16       1.0  0.24780  0.80940  0.26180  1.0000
  C   C41       1.0  0.40317  0.68640  0.80050  1.0000
  C   C42       1.0  0.59683  0.18640  0.69950  1.0000
  C   C43       1.0  0.59683  0.31360  0.19950  1.0000
  C   C44       1.0  0.40317  0.81360  0.30050  1.0000
  H   H17       1.0  0.41060  0.61080  0.79330  1.0000
  H   H18       1.0  0.58940  0.11080  0.70670  1.0000
  H   H19       1.0  0.58940  0.38920  0.20670  1.0000
  H   H20       1.0  0.41060  0.88920  0.29330  1.0000
  C   C45       1.0  0.48946  0.75208  0.83090  1.0000
  C   C46       1.0  0.51054  0.25208  0.66910  1.0000
  C   C47       1.0  0.51054  0.24792  0.16910  1.0000
  C   C48       1.0  0.48946  0.74792  0.33090  1.0000
  C   C49       1.0  0.47293  0.86395  0.84160  1.0000
  C   C50       1.0  0.52707  0.36395  0.65840  1.0000
  C   C51       1.0  0.52707  0.13605  0.15840  1.0000
  C   C52       1.0  0.47293  0.63605  0.34160  1.0000
  H   H21       1.0  0.52990  0.90860  0.86360  1.0000
  H   H22       1.0  0.47010  0.40860  0.63640  1.0000
  H   H23       1.0  0.47010  0.09140  0.13640  1.0000
  H   H24       1.0  0.52990  0.59140  0.36360  1.0000
  C   C53       1.0  0.59773  0.70662  0.84639  1.0000
  C   C54       1.0  0.40227  0.20662  0.65361  1.0000
  C   C55       1.0  0.40227  0.29338  0.15361  1.0000
  C   C56       1.0  0.59773  0.79338  0.34639  1.0000
  H   H25       1.0  0.31500  0.11730  0.02930  1.0000
  H   H26       1.0  0.68500  0.61730  0.47070  1.0000
  H   H27       1.0  0.68500  0.88270  0.97070  1.0000
  H   H28       1.0  0.31500  0.38270  0.52930  1.0000
  H   H29       1.0  0.27500  0.99910  0.99900  1.0000
  H   H30       1.0  0.72500  0.49910  0.50100  1.0000
  H   H31       1.0  0.72500  0.00090  0.00100  1.0000
  H   H32       1.0  0.27500  0.50090  0.49900  1.0000
