data_image0
_chemical_formula_structural       Mn4O24C8H8C4H4
_chemical_formula_sum              "Mn4 O24 C12 H12"
_cell_length_a       8.5611
_cell_length_b       12.0204
_cell_length_c       9.0426
_cell_angle_alpha    90
_cell_angle_beta     90
_cell_angle_gamma    90

_space_group_name_H-M_alt    "P 1"
_space_group_IT_number       1

loop_
  _space_group_symop_operation_xyz
  'x, y, z'

loop_
  _atom_site_type_symbol
  _atom_site_label
  _atom_site_symmetry_multiplicity
  _atom_site_fract_x
  _atom_site_fract_y
  _atom_site_fract_z
  _atom_site_occupancy
  Mn  Mn1       1.0  0.25150  0.75000  0.25000  1.0000
  Mn  Mn2       1.0  0.24850  0.25000  0.25000  1.0000
  Mn  Mn3       1.0  0.74850  0.25000  0.75000  1.0000
  Mn  Mn4       1.0  0.75150  0.75000  0.75000  1.0000
  O   O1        1.0  0.44483  0.69208  0.38908  1.0000
  O   O2        1.0  0.05517  0.30792  0.38908  1.0000
  O   O3        1.0  0.44483  0.80792  0.11092  1.0000
  O   O4        1.0  0.05517  0.19208  0.11092  1.0000
  O   O5        1.0  0.55517  0.30792  0.61092  1.0000
  O   O6        1.0  0.94483  0.69208  0.61092  1.0000
  O   O7        1.0  0.55517  0.19208  0.88908  1.0000
  O   O8        1.0  0.94483  0.80792  0.88908  1.0000
  O   O9        1.0  0.59822  0.68159  0.58331  1.0000
  O   O10       1.0  0.90178  0.31841  0.58331  1.0000
  O   O11       1.0  0.59822  0.81841  0.91669  1.0000
  O   O12       1.0  0.90178  0.18159  0.91669  1.0000
  O   O13       1.0  0.40178  0.31841  0.41669  1.0000
  O   O14       1.0  0.09822  0.68159  0.41669  1.0000
  O   O15       1.0  0.40178  0.18159  0.08331  1.0000
  O   O16       1.0  0.09822  0.81841  0.08331  1.0000
  O   O17       1.0  0.24644  0.59187  0.13086  1.0000
  O   O18       1.0  0.25356  0.40813  0.13086  1.0000
  O   O19       1.0  0.24644  0.90813  0.36914  1.0000
  O   O20       1.0  0.25356  0.09187  0.36914  1.0000
  O   O21       1.0  0.75356  0.40813  0.86914  1.0000
  O   O22       1.0  0.74644  0.59187  0.86914  1.0000
  O   O23       1.0  0.75356  0.09187  0.63086  1.0000
  O   O24       1.0  0.74644  0.90813  0.63086  1.0000
  C   C1        1.0  0.48360  0.71776  0.51554  1.0000
  C   C2        1.0  0.01640  0.28224  0.51554  1.0000
  C   C3        1.0  0.48360  0.78224  0.98446  1.0000
  C   C4        1.0  0.01640  0.21776  0.98446  1.0000
  C   C5        1.0  0.51640  0.28224  0.48446  1.0000
  C   C6        1.0  0.98360  0.71776  0.48446  1.0000
  C   C7        1.0  0.51640  0.21776  0.01554  1.0000
  C   C8        1.0  0.98360  0.78224  0.01554  1.0000
  H   H1        1.0  0.42090  0.76910  0.56460  1.0000
  H   H2        1.0  0.07910  0.23090  0.56460  1.0000
  H   H3        1.0  0.42090  0.73090  0.93540  1.0000
  H   H4        1.0  0.07910  0.26910  0.93540  1.0000
  H   H5        1.0  0.57910  0.23090  0.43540  1.0000
  H   H6        1.0  0.92090  0.76910  0.43540  1.0000
  H   H7        1.0  0.57910  0.26910  0.06460  1.0000
  H   H8        1.0  0.92090  0.73090  0.06460  1.0000
  C   C9        1.0  0.25000  0.50000  0.19140  1.0000
  C   C10       1.0  0.25000  0.00000  0.30860  1.0000
  C   C11       1.0  0.75000  0.50000  0.80860  1.0000
  C   C12       1.0  0.75000  0.00000  0.69140  1.0000
  H   H9        1.0  0.25000  0.50000  0.29430  1.0000
  H   H10       1.0  0.25000  0.00000  0.20570  1.0000
  H   H11       1.0  0.75000  0.50000  0.70570  1.0000
  H   H12       1.0  0.75000  0.00000  0.79430  1.0000
