data_image0
_chemical_formula_structural       Mn4O24C8H8C4H4
_chemical_formula_sum              "Mn4 O24 C12 H12"
_cell_length_a       8.5389
_cell_length_b       11.9989
_cell_length_c       9.0517
_cell_angle_alpha    90
_cell_angle_beta     90
_cell_angle_gamma    90

_space_group_name_H-M_alt    "P 1"
_space_group_IT_number       1

loop_
  _space_group_symop_operation_xyz
  'x, y, z'

loop_
  _atom_site_type_symbol
  _atom_site_label
  _atom_site_symmetry_multiplicity
  _atom_site_fract_x
  _atom_site_fract_y
  _atom_site_fract_z
  _atom_site_occupancy
  Mn  Mn1       1.0  0.24973  0.75000  0.25000  1.0000
  Mn  Mn2       1.0  0.25027  0.25000  0.25000  1.0000
  Mn  Mn3       1.0  0.75027  0.25000  0.75000  1.0000
  Mn  Mn4       1.0  0.74973  0.75000  0.75000  1.0000
  O   O1        1.0  0.44373  0.69164  0.38812  1.0000
  O   O2        1.0  0.05627  0.30836  0.38812  1.0000
  O   O3        1.0  0.44373  0.80836  0.11188  1.0000
  O   O4        1.0  0.05627  0.19164  0.11188  1.0000
  O   O5        1.0  0.55627  0.30836  0.61188  1.0000
  O   O6        1.0  0.94373  0.69164  0.61188  1.0000
  O   O7        1.0  0.55627  0.19164  0.88812  1.0000
  O   O8        1.0  0.94373  0.80836  0.88812  1.0000
  O   O9        1.0  0.59674  0.68051  0.58378  1.0000
  O   O10       1.0  0.90326  0.31949  0.58378  1.0000
  O   O11       1.0  0.59674  0.81949  0.91622  1.0000
  O   O12       1.0  0.90326  0.18051  0.91622  1.0000
  O   O13       1.0  0.40326  0.31949  0.41622  1.0000
  O   O14       1.0  0.09674  0.68051  0.41622  1.0000
  O   O15       1.0  0.40326  0.18051  0.08378  1.0000
  O   O16       1.0  0.09674  0.81949  0.08378  1.0000
  O   O17       1.0  0.24494  0.59234  0.12967  1.0000
  O   O18       1.0  0.25506  0.40766  0.12967  1.0000
  O   O19       1.0  0.24494  0.90766  0.37033  1.0000
  O   O20       1.0  0.25506  0.09234  0.37033  1.0000
  O   O21       1.0  0.75506  0.40766  0.87033  1.0000
  O   O22       1.0  0.74494  0.59234  0.87033  1.0000
  O   O23       1.0  0.75506  0.09234  0.62967  1.0000
  O   O24       1.0  0.74494  0.90766  0.62967  1.0000
  C   C1        1.0  0.48185  0.71704  0.51538  1.0000
  C   C2        1.0  0.01815  0.28296  0.51538  1.0000
  C   C3        1.0  0.48185  0.78296  0.98462  1.0000
  C   C4        1.0  0.01815  0.21704  0.98462  1.0000
  C   C5        1.0  0.51815  0.28296  0.48462  1.0000
  C   C6        1.0  0.98185  0.71704  0.48462  1.0000
  C   C7        1.0  0.51815  0.21704  0.01538  1.0000
  C   C8        1.0  0.98185  0.78296  0.01538  1.0000
  H   H1        1.0  0.41860  0.76820  0.56440  1.0000
  H   H2        1.0  0.08140  0.23180  0.56440  1.0000
  H   H3        1.0  0.41860  0.73180  0.93560  1.0000
  H   H4        1.0  0.08140  0.26820  0.93560  1.0000
  H   H5        1.0  0.58140  0.23180  0.43560  1.0000
  H   H6        1.0  0.91860  0.76820  0.43560  1.0000
  H   H7        1.0  0.58140  0.26820  0.06440  1.0000
  H   H8        1.0  0.91860  0.73180  0.06440  1.0000
  C   C9        1.0  0.25000  0.50000  0.19030  1.0000
  C   C10       1.0  0.25000  0.00000  0.30970  1.0000
  C   C11       1.0  0.75000  0.50000  0.80970  1.0000
  C   C12       1.0  0.75000  0.00000  0.69030  1.0000
  H   H9        1.0  0.25000  0.50000  0.29310  1.0000
  H   H10       1.0  0.25000  0.00000  0.20690  1.0000
  H   H11       1.0  0.75000  0.50000  0.70690  1.0000
  H   H12       1.0  0.75000  0.00000  0.79310  1.0000
