data_image0
_chemical_formula_structural       Mn4O24C8H8C4H4
_chemical_formula_sum              "Mn4 O24 C12 H12"
_cell_length_a       8.5164
_cell_length_b       11.9772
_cell_length_c       9.0562
_cell_angle_alpha    90
_cell_angle_beta     90
_cell_angle_gamma    90

_space_group_name_H-M_alt    "P 1"
_space_group_IT_number       1

loop_
  _space_group_symop_operation_xyz
  'x, y, z'

loop_
  _atom_site_type_symbol
  _atom_site_label
  _atom_site_symmetry_multiplicity
  _atom_site_fract_x
  _atom_site_fract_y
  _atom_site_fract_z
  _atom_site_occupancy
  Mn  Mn1       1.0  0.24814  0.75000  0.25000  1.0000
  Mn  Mn2       1.0  0.25186  0.25000  0.25000  1.0000
  Mn  Mn3       1.0  0.75186  0.25000  0.75000  1.0000
  Mn  Mn4       1.0  0.74814  0.75000  0.75000  1.0000
  O   O1        1.0  0.44270  0.69117  0.38771  1.0000
  O   O2        1.0  0.05730  0.30883  0.38771  1.0000
  O   O3        1.0  0.44270  0.80883  0.11229  1.0000
  O   O4        1.0  0.05730  0.19117  0.11229  1.0000
  O   O5        1.0  0.55730  0.30883  0.61229  1.0000
  O   O6        1.0  0.94270  0.69117  0.61229  1.0000
  O   O7        1.0  0.55730  0.19117  0.88771  1.0000
  O   O8        1.0  0.94270  0.80883  0.88771  1.0000
  O   O9        1.0  0.59548  0.67962  0.58390  1.0000
  O   O10       1.0  0.90452  0.32038  0.58390  1.0000
  O   O11       1.0  0.59548  0.82038  0.91610  1.0000
  O   O12       1.0  0.90452  0.17962  0.91610  1.0000
  O   O13       1.0  0.40452  0.32038  0.41610  1.0000
  O   O14       1.0  0.09548  0.67962  0.41610  1.0000
  O   O15       1.0  0.40452  0.17962  0.08390  1.0000
  O   O16       1.0  0.09548  0.82038  0.08390  1.0000
  O   O17       1.0  0.24355  0.59250  0.12847  1.0000
  O   O18       1.0  0.25645  0.40750  0.12847  1.0000
  O   O19       1.0  0.24355  0.90750  0.37153  1.0000
  O   O20       1.0  0.25645  0.09250  0.37153  1.0000
  O   O21       1.0  0.75645  0.40750  0.87153  1.0000
  O   O22       1.0  0.74355  0.59250  0.87153  1.0000
  O   O23       1.0  0.75645  0.09250  0.62847  1.0000
  O   O24       1.0  0.74355  0.90750  0.62847  1.0000
  C   C1        1.0  0.48014  0.71657  0.51534  1.0000
  C   C2        1.0  0.01986  0.28343  0.51534  1.0000
  C   C3        1.0  0.48014  0.78343  0.98466  1.0000
  C   C4        1.0  0.01986  0.21657  0.98466  1.0000
  C   C5        1.0  0.51986  0.28343  0.48466  1.0000
  C   C6        1.0  0.98014  0.71657  0.48466  1.0000
  C   C7        1.0  0.51986  0.21657  0.01534  1.0000
  C   C8        1.0  0.98014  0.78343  0.01534  1.0000
  H   H1        1.0  0.41650  0.76770  0.56420  1.0000
  H   H2        1.0  0.08350  0.23230  0.56420  1.0000
  H   H3        1.0  0.41650  0.73230  0.93580  1.0000
  H   H4        1.0  0.08350  0.26770  0.93580  1.0000
  H   H5        1.0  0.58350  0.23230  0.43580  1.0000
  H   H6        1.0  0.91650  0.76770  0.43580  1.0000
  H   H7        1.0  0.58350  0.26770  0.06420  1.0000
  H   H8        1.0  0.91650  0.73230  0.06420  1.0000
  C   C9        1.0  0.25000  0.50000  0.18970  1.0000
  C   C10       1.0  0.25000  0.00000  0.31030  1.0000
  C   C11       1.0  0.75000  0.50000  0.81030  1.0000
  C   C12       1.0  0.75000  0.00000  0.68970  1.0000
  H   H9        1.0  0.25000  0.50000  0.29240  1.0000
  H   H10       1.0  0.25000  0.00000  0.20760  1.0000
  H   H11       1.0  0.75000  0.50000  0.70760  1.0000
  H   H12       1.0  0.75000  0.00000  0.79240  1.0000
