data_image0
_chemical_formula_structural       Mn4O24C8H8C4H4
_chemical_formula_sum              "Mn4 O24 C12 H12"
_cell_length_a       8.5303
_cell_length_b       11.9918
_cell_length_c       9.0531
_cell_angle_alpha    90
_cell_angle_beta     90
_cell_angle_gamma    90

_space_group_name_H-M_alt    "P 1"
_space_group_IT_number       1

loop_
  _space_group_symop_operation_xyz
  'x, y, z'

loop_
  _atom_site_type_symbol
  _atom_site_label
  _atom_site_symmetry_multiplicity
  _atom_site_fract_x
  _atom_site_fract_y
  _atom_site_fract_z
  _atom_site_occupancy
  Mn  Mn1       1.0  0.24916  0.75000  0.25000  1.0000
  Mn  Mn2       1.0  0.25084  0.25000  0.25000  1.0000
  Mn  Mn3       1.0  0.75084  0.25000  0.75000  1.0000
  Mn  Mn4       1.0  0.74916  0.75000  0.75000  1.0000
  O   O1        1.0  0.44348  0.69144  0.38790  1.0000
  O   O2        1.0  0.05652  0.30856  0.38790  1.0000
  O   O3        1.0  0.44348  0.80856  0.11210  1.0000
  O   O4        1.0  0.05652  0.19144  0.11210  1.0000
  O   O5        1.0  0.55652  0.30856  0.61210  1.0000
  O   O6        1.0  0.94348  0.69144  0.61210  1.0000
  O   O7        1.0  0.55652  0.19144  0.88790  1.0000
  O   O8        1.0  0.94348  0.80856  0.88790  1.0000
  O   O9        1.0  0.59623  0.68019  0.58387  1.0000
  O   O10       1.0  0.90377  0.31981  0.58387  1.0000
  O   O11       1.0  0.59623  0.81981  0.91613  1.0000
  O   O12       1.0  0.90377  0.18019  0.91613  1.0000
  O   O13       1.0  0.40377  0.31981  0.41613  1.0000
  O   O14       1.0  0.09623  0.68019  0.41613  1.0000
  O   O15       1.0  0.40377  0.18019  0.08387  1.0000
  O   O16       1.0  0.09623  0.81981  0.08387  1.0000
  O   O17       1.0  0.24455  0.59232  0.12917  1.0000
  O   O18       1.0  0.25545  0.40768  0.12917  1.0000
  O   O19       1.0  0.24455  0.90768  0.37083  1.0000
  O   O20       1.0  0.25545  0.09232  0.37083  1.0000
  O   O21       1.0  0.75545  0.40768  0.87083  1.0000
  O   O22       1.0  0.74455  0.59232  0.87083  1.0000
  O   O23       1.0  0.75545  0.09232  0.62917  1.0000
  O   O24       1.0  0.74455  0.90768  0.62917  1.0000
  C   C1        1.0  0.48122  0.71688  0.51555  1.0000
  C   C2        1.0  0.01878  0.28312  0.51555  1.0000
  C   C3        1.0  0.48122  0.78312  0.98445  1.0000
  C   C4        1.0  0.01878  0.21688  0.98445  1.0000
  C   C5        1.0  0.51878  0.28312  0.48445  1.0000
  C   C6        1.0  0.98122  0.71688  0.48445  1.0000
  C   C7        1.0  0.51878  0.21688  0.01555  1.0000
  C   C8        1.0  0.98122  0.78312  0.01555  1.0000
  H   H1        1.0  0.41780  0.76800  0.56450  1.0000
  H   H2        1.0  0.08220  0.23200  0.56450  1.0000
  H   H3        1.0  0.41780  0.73200  0.93550  1.0000
  H   H4        1.0  0.08220  0.26800  0.93550  1.0000
  H   H5        1.0  0.58220  0.23200  0.43550  1.0000
  H   H6        1.0  0.91780  0.76800  0.43550  1.0000
  H   H7        1.0  0.58220  0.26800  0.06450  1.0000
  H   H8        1.0  0.91780  0.73200  0.06450  1.0000
  C   C9        1.0  0.25000  0.50000  0.18990  1.0000
  C   C10       1.0  0.25000  0.00000  0.31010  1.0000
  C   C11       1.0  0.75000  0.50000  0.81010  1.0000
  C   C12       1.0  0.75000  0.00000  0.68990  1.0000
  H   H9        1.0  0.25000  0.50000  0.29260  1.0000
  H   H10       1.0  0.25000  0.00000  0.20740  1.0000
  H   H11       1.0  0.75000  0.50000  0.70740  1.0000
  H   H12       1.0  0.75000  0.00000  0.79260  1.0000
