data_image0
_chemical_formula_structural       Mn4O24C4H4C8H8
_chemical_formula_sum              "Mn4 O24 C12 H12"
_cell_length_a       8.5211
_cell_length_b       11.9779
_cell_length_c       9.0593
_cell_angle_alpha    90
_cell_angle_beta     90
_cell_angle_gamma    90

_space_group_name_H-M_alt    "P 1"
_space_group_IT_number       1

loop_
  _space_group_symop_operation_xyz
  'x, y, z'

loop_
  _atom_site_type_symbol
  _atom_site_label
  _atom_site_symmetry_multiplicity
  _atom_site_fract_x
  _atom_site_fract_y
  _atom_site_fract_z
  _atom_site_occupancy
  Mn  Mn1       1.0  0.25192  0.25000  0.25000  1.0000
  Mn  Mn2       1.0  0.24808  0.75000  0.25000  1.0000
  Mn  Mn3       1.0  0.74808  0.75000  0.75000  1.0000
  Mn  Mn4       1.0  0.75192  0.25000  0.75000  1.0000
  O   O1        1.0  0.25685  0.40746  0.37153  1.0000
  O   O2        1.0  0.24315  0.59254  0.37153  1.0000
  O   O3        1.0  0.24315  0.90746  0.12847  1.0000
  O   O4        1.0  0.25685  0.09254  0.12847  1.0000
  O   O5        1.0  0.74315  0.59254  0.62847  1.0000
  O   O6        1.0  0.75685  0.40746  0.62847  1.0000
  O   O7        1.0  0.75685  0.09254  0.87153  1.0000
  O   O8        1.0  0.74315  0.90746  0.87153  1.0000
  O   O9        1.0  0.40434  0.17949  0.41632  1.0000
  O   O10       1.0  0.09566  0.82051  0.41632  1.0000
  O   O11       1.0  0.09566  0.67949  0.08368  1.0000
  O   O12       1.0  0.40434  0.32051  0.08368  1.0000
  O   O13       1.0  0.59566  0.82051  0.58368  1.0000
  O   O14       1.0  0.90434  0.17949  0.58368  1.0000
  O   O15       1.0  0.90434  0.32051  0.91632  1.0000
  O   O16       1.0  0.59566  0.67949  0.91632  1.0000
  O   O17       1.0  0.55742  0.19135  0.61227  1.0000
  O   O18       1.0  0.94258  0.80865  0.61227  1.0000
  O   O19       1.0  0.94258  0.69135  0.88773  1.0000
  O   O20       1.0  0.55742  0.30865  0.88773  1.0000
  O   O21       1.0  0.44258  0.80865  0.38773  1.0000
  O   O22       1.0  0.05742  0.19135  0.38773  1.0000
  O   O23       1.0  0.05742  0.30865  0.11227  1.0000
  O   O24       1.0  0.44258  0.69135  0.11227  1.0000
  C   C1        1.0  0.25000  0.50000  0.31080  1.0000
  C   C2        1.0  0.25000  0.00000  0.18920  1.0000
  C   C3        1.0  0.75000  0.50000  0.68920  1.0000
  C   C4        1.0  0.75000  0.00000  0.81080  1.0000
  H   H1        1.0  0.25000  0.50000  0.20820  1.0000
  H   H2        1.0  0.25000  0.00000  0.29180  1.0000
  H   H3        1.0  0.75000  0.50000  0.79180  1.0000
  H   H4        1.0  0.75000  0.00000  0.70820  1.0000
  C   C5        1.0  0.51980  0.21654  0.48493  1.0000
  C   C6        1.0  0.98020  0.78346  0.48493  1.0000
  C   C7        1.0  0.98020  0.71654  0.01507  1.0000
  C   C8        1.0  0.51980  0.28346  0.01507  1.0000
  C   C9        1.0  0.48020  0.78346  0.51507  1.0000
  C   C10       1.0  0.01980  0.21654  0.51507  1.0000
  C   C11       1.0  0.01980  0.28346  0.98493  1.0000
  C   C12       1.0  0.48020  0.71654  0.98493  1.0000
  H   H5        1.0  0.58330  0.26770  0.43590  1.0000
  H   H6        1.0  0.91670  0.73230  0.43590  1.0000
  H   H7        1.0  0.91670  0.76770  0.06410  1.0000
  H   H8        1.0  0.58330  0.23230  0.06410  1.0000
  H   H9        1.0  0.41670  0.73230  0.56410  1.0000
  H   H10       1.0  0.08330  0.26770  0.56410  1.0000
  H   H11       1.0  0.08330  0.23230  0.93590  1.0000
  H   H12       1.0  0.41670  0.76770  0.93590  1.0000
