data_image0
_chemical_formula_structural       Mn4O24C8H8C4H4
_chemical_formula_sum              "Mn4 O24 C12 H12"
_cell_length_a       8.5471
_cell_length_b       12.0046
_cell_length_c       9.0496
_cell_angle_alpha    90
_cell_angle_beta     90
_cell_angle_gamma    90

_space_group_name_H-M_alt    "P 1"
_space_group_IT_number       1

loop_
  _space_group_symop_operation_xyz
  'x, y, z'

loop_
  _atom_site_type_symbol
  _atom_site_label
  _atom_site_symmetry_multiplicity
  _atom_site_fract_x
  _atom_site_fract_y
  _atom_site_fract_z
  _atom_site_occupancy
  Mn  Mn1       1.0  0.25034  0.75000  0.25000  1.0000
  Mn  Mn2       1.0  0.24966  0.25000  0.25000  1.0000
  Mn  Mn3       1.0  0.74966  0.25000  0.75000  1.0000
  Mn  Mn4       1.0  0.75034  0.75000  0.75000  1.0000
  O   O1        1.0  0.44416  0.69167  0.38830  1.0000
  O   O2        1.0  0.05584  0.30833  0.38830  1.0000
  O   O3        1.0  0.44416  0.80833  0.11170  1.0000
  O   O4        1.0  0.05584  0.19167  0.11170  1.0000
  O   O5        1.0  0.55584  0.30833  0.61170  1.0000
  O   O6        1.0  0.94416  0.69167  0.61170  1.0000
  O   O7        1.0  0.55584  0.19167  0.88830  1.0000
  O   O8        1.0  0.94416  0.80833  0.88830  1.0000
  O   O9        1.0  0.59710  0.68083  0.58373  1.0000
  O   O10       1.0  0.90290  0.31917  0.58373  1.0000
  O   O11       1.0  0.59710  0.81917  0.91627  1.0000
  O   O12       1.0  0.90290  0.18083  0.91627  1.0000
  O   O13       1.0  0.40290  0.31917  0.41627  1.0000
  O   O14       1.0  0.09710  0.68083  0.41627  1.0000
  O   O15       1.0  0.40290  0.18083  0.08373  1.0000
  O   O16       1.0  0.09710  0.81917  0.08373  1.0000
  O   O17       1.0  0.24557  0.59213  0.13000  1.0000
  O   O18       1.0  0.25443  0.40787  0.13000  1.0000
  O   O19       1.0  0.24557  0.90787  0.37000  1.0000
  O   O20       1.0  0.25443  0.09213  0.37000  1.0000
  O   O21       1.0  0.75443  0.40787  0.87000  1.0000
  O   O22       1.0  0.74557  0.59213  0.87000  1.0000
  O   O23       1.0  0.75443  0.09213  0.63000  1.0000
  O   O24       1.0  0.74557  0.90787  0.63000  1.0000
  C   C1        1.0  0.48240  0.71722  0.51568  1.0000
  C   C2        1.0  0.01760  0.28278  0.51568  1.0000
  C   C3        1.0  0.48240  0.78278  0.98432  1.0000
  C   C4        1.0  0.01760  0.21722  0.98432  1.0000
  C   C5        1.0  0.51760  0.28278  0.48432  1.0000
  C   C6        1.0  0.98240  0.71722  0.48432  1.0000
  C   C7        1.0  0.51760  0.21722  0.01568  1.0000
  C   C8        1.0  0.98240  0.78278  0.01568  1.0000
  H   H1        1.0  0.41940  0.76840  0.56470  1.0000
  H   H2        1.0  0.08060  0.23160  0.56470  1.0000
  H   H3        1.0  0.41940  0.73160  0.93530  1.0000
  H   H4        1.0  0.08060  0.26840  0.93530  1.0000
  H   H5        1.0  0.58060  0.23160  0.43530  1.0000
  H   H6        1.0  0.91940  0.76840  0.43530  1.0000
  H   H7        1.0  0.58060  0.26840  0.06470  1.0000
  H   H8        1.0  0.91940  0.73160  0.06470  1.0000
  C   C9        1.0  0.25000  0.50000  0.19090  1.0000
  C   C10       1.0  0.25000  0.00000  0.30910  1.0000
  C   C11       1.0  0.75000  0.50000  0.80910  1.0000
  C   C12       1.0  0.75000  0.00000  0.69090  1.0000
  H   H9        1.0  0.25000  0.50000  0.29360  1.0000
  H   H10       1.0  0.25000  0.00000  0.20640  1.0000
  H   H11       1.0  0.75000  0.50000  0.70640  1.0000
  H   H12       1.0  0.75000  0.00000  0.79360  1.0000
