data_image0
_chemical_formula_structural       Zn4O24C8H8C4H4
_chemical_formula_sum              "Zn4 O24 C12 H12"
_cell_length_a       8.3202
_cell_length_b       11.7079
_cell_length_c       8.9497
_cell_angle_alpha    90
_cell_angle_beta     90
_cell_angle_gamma    90

_space_group_name_H-M_alt    "P 1"
_space_group_IT_number       1

loop_
  _space_group_symop_operation_xyz
  'x, y, z'

loop_
  _atom_site_type_symbol
  _atom_site_label
  _atom_site_symmetry_multiplicity
  _atom_site_fract_x
  _atom_site_fract_y
  _atom_site_fract_z
  _atom_site_occupancy
  Zn  Zn1       1.0  0.25855  0.75000  0.25000  1.0000
  Zn  Zn2       1.0  0.24145  0.25000  0.25000  1.0000
  Zn  Zn3       1.0  0.74145  0.25000  0.75000  1.0000
  Zn  Zn4       1.0  0.75855  0.75000  0.75000  1.0000
  O   O1        1.0  0.40889  0.81970  0.41320  1.0000
  O   O2        1.0  0.09111  0.18030  0.41320  1.0000
  O   O3        1.0  0.09111  0.31970  0.08680  1.0000
  O   O4        1.0  0.40889  0.68030  0.08680  1.0000
  O   O5        1.0  0.59111  0.18030  0.58680  1.0000
  O   O6        1.0  0.90889  0.81970  0.58680  1.0000
  O   O7        1.0  0.90889  0.68030  0.91320  1.0000
  O   O8        1.0  0.59111  0.31970  0.91320  1.0000
  O   O9        1.0  0.56526  0.80801  0.61379  1.0000
  O   O10       1.0  0.93474  0.19199  0.61379  1.0000
  O   O11       1.0  0.93474  0.30801  0.88621  1.0000
  O   O12       1.0  0.56526  0.69199  0.88621  1.0000
  O   O13       1.0  0.43474  0.19199  0.38621  1.0000
  O   O14       1.0  0.06526  0.80801  0.38621  1.0000
  O   O15       1.0  0.06526  0.69199  0.11379  1.0000
  O   O16       1.0  0.43474  0.30801  0.11379  1.0000
  O   O17       1.0  0.25972  0.59488  0.36643  1.0000
  O   O18       1.0  0.24028  0.40512  0.36643  1.0000
  O   O19       1.0  0.24028  0.09488  0.13357  1.0000
  O   O20       1.0  0.25972  0.90512  0.13357  1.0000
  O   O21       1.0  0.74028  0.40512  0.63357  1.0000
  O   O22       1.0  0.75972  0.59488  0.63357  1.0000
  O   O23       1.0  0.75972  0.90512  0.86643  1.0000
  O   O24       1.0  0.74028  0.09488  0.86643  1.0000
  C   C1        1.0  0.52614  0.77900  0.48378  1.0000
  C   C2        1.0  0.97386  0.22100  0.48378  1.0000
  C   C3        1.0  0.97386  0.27900  0.01622  1.0000
  C   C4        1.0  0.52614  0.72100  0.01622  1.0000
  C   C5        1.0  0.47386  0.22100  0.51622  1.0000
  C   C6        1.0  0.02614  0.77900  0.51622  1.0000
  C   C7        1.0  0.02614  0.72100  0.98378  1.0000
  C   C8        1.0  0.47386  0.27900  0.98378  1.0000
  H   H1        1.0  0.58810  0.72370  0.43650  1.0000
  H   H2        1.0  0.91190  0.27630  0.43650  1.0000
  H   H3        1.0  0.91190  0.22370  0.06350  1.0000
  H   H4        1.0  0.58810  0.77630  0.06350  1.0000
  H   H5        1.0  0.41190  0.27630  0.56350  1.0000
  H   H6        1.0  0.08810  0.72370  0.56350  1.0000
  H   H7        1.0  0.08810  0.77630  0.93650  1.0000
  H   H8        1.0  0.41190  0.22370  0.93650  1.0000
  C   C9        1.0  0.25000  0.50000  0.30210  1.0000
  C   C10       1.0  0.25000  0.00000  0.19790  1.0000
  C   C11       1.0  0.75000  0.50000  0.69790  1.0000
  C   C12       1.0  0.75000  0.00000  0.80210  1.0000
  H   H9        1.0  0.25000  0.50000  0.19820  1.0000
  H   H10       1.0  0.25000  0.00000  0.30180  1.0000
  H   H11       1.0  0.75000  0.50000  0.80180  1.0000
  H   H12       1.0  0.75000  0.00000  0.69820  1.0000
