data_image0
_chemical_formula_structural       Cu4O24C4H4C4H4C4H4
_chemical_formula_sum              "Cu4 O24 C12 H12"
_cell_length_a       8.5269
_cell_length_b       9.0459
_cell_length_c       11.3532
_cell_angle_alpha    90
_cell_angle_beta     90
_cell_angle_gamma    90

_space_group_name_H-M_alt    "P 1"
_space_group_IT_number       1

loop_
  _space_group_symop_operation_xyz
  'x, y, z'

loop_
  _atom_site_type_symbol
  _atom_site_label
  _atom_site_symmetry_multiplicity
  _atom_site_fract_x
  _atom_site_fract_y
  _atom_site_fract_z
  _atom_site_occupancy
  Cu  Cu1       1.0  0.99489  0.99922  0.47640  1.0000
  Cu  Cu2       1.0  0.00511  0.00078  0.97640  1.0000
  Cu  Cu3       1.0  0.50511  0.49922  0.97640  1.0000
  Cu  Cu4       1.0  0.49489  0.50078  0.47640  1.0000
  O   O1        1.0  0.99898  0.88861  0.32307  1.0000
  O   O2        1.0  0.00102  0.11139  0.82307  1.0000
  O   O3        1.0  0.50102  0.38861  0.82307  1.0000
  O   O4        1.0  0.49898  0.61139  0.32307  1.0000
  O   O5        1.0  0.20796  0.15251  0.41564  1.0000
  O   O6        1.0  0.79204  0.84749  0.91564  1.0000
  O   O7        1.0  0.29204  0.65251  0.91564  1.0000
  O   O8        1.0  0.70796  0.34749  0.41564  1.0000
  O   O9        1.0  0.01337  0.89037  0.12841  1.0000
  O   O10       1.0  0.98663  0.10963  0.62841  1.0000
  O   O11       1.0  0.48663  0.39037  0.62841  1.0000
  O   O12       1.0  0.51337  0.60963  0.12841  1.0000
  O   O13       1.0  0.36224  0.34878  0.40428  1.0000
  O   O14       1.0  0.63776  0.65122  0.90428  1.0000
  O   O15       1.0  0.13776  0.84878  0.90428  1.0000
  O   O16       1.0  0.86224  0.15122  0.40428  1.0000
  O   O17       1.0  0.16793  0.87756  0.53880  1.0000
  O   O18       1.0  0.83207  0.12244  0.03880  1.0000
  O   O19       1.0  0.33207  0.37756  0.03880  1.0000
  O   O20       1.0  0.66793  0.62244  0.53880  1.0000
  O   O21       1.0  0.32108  0.68004  0.55112  1.0000
  O   O22       1.0  0.67892  0.31996  0.05112  1.0000
  O   O23       1.0  0.17892  0.18004  0.05112  1.0000
  O   O24       1.0  0.82108  0.81996  0.55112  1.0000
  C   C1        1.0  0.20430  0.74510  0.51277  1.0000
  C   C2        1.0  0.79570  0.25490  0.01277  1.0000
  C   C3        1.0  0.29570  0.24510  0.01277  1.0000
  C   C4        1.0  0.70430  0.75490  0.51277  1.0000
  H   H1        1.0  0.13870  0.69390  0.46160  1.0000
  H   H2        1.0  0.86130  0.30610  0.96160  1.0000
  H   H3        1.0  0.36130  0.19390  0.96160  1.0000
  H   H4        1.0  0.63870  0.80610  0.46160  1.0000
  C   C5        1.0  0.00760  0.95436  0.22570  1.0000
  C   C6        1.0  0.99240  0.04564  0.72570  1.0000
  C   C7        1.0  0.49240  0.45436  0.72570  1.0000
  C   C8        1.0  0.50760  0.54564  0.22570  1.0000
  H   H5        1.0  0.00980  0.05710  0.22630  1.0000
  H   H6        1.0  0.99020  0.94290  0.72630  1.0000
  H   H7        1.0  0.49020  0.55710  0.72630  1.0000
  H   H8        1.0  0.50980  0.44290  0.22630  1.0000
  C   C9        1.0  0.24720  0.27800  0.44691  1.0000
  C   C10       1.0  0.75280  0.72200  0.94691  1.0000
  C   C11       1.0  0.25280  0.77800  0.94691  1.0000
  C   C12       1.0  0.74720  0.22200  0.44691  1.0000
  H   H9        1.0  0.18840  0.32350  0.50560  1.0000
  H   H10       1.0  0.81160  0.67650  0.00560  1.0000
  H   H11       1.0  0.31160  0.82350  0.00560  1.0000
  H   H12       1.0  0.68840  0.17650  0.50560  1.0000
