data_image0
_chemical_formula_structural       Zn4O24C8H8C4H4
_chemical_formula_sum              "Zn4 O24 C12 H12"
_cell_length_a       8.3501
_cell_length_b       11.7353
_cell_length_c       8.9456
_cell_angle_alpha    90
_cell_angle_beta     90
_cell_angle_gamma    90

_space_group_name_H-M_alt    "P 1"
_space_group_IT_number       1

loop_
  _space_group_symop_operation_xyz
  'x, y, z'

loop_
  _atom_site_type_symbol
  _atom_site_label
  _atom_site_symmetry_multiplicity
  _atom_site_fract_x
  _atom_site_fract_y
  _atom_site_fract_z
  _atom_site_occupancy
  Zn  Zn1       1.0  0.25661  0.75000  0.25000  1.0000
  Zn  Zn2       1.0  0.24339  0.25000  0.25000  1.0000
  Zn  Zn3       1.0  0.74339  0.25000  0.75000  1.0000
  Zn  Zn4       1.0  0.75661  0.75000  0.75000  1.0000
  O   O1        1.0  0.40743  0.81862  0.41349  1.0000
  O   O2        1.0  0.09257  0.18138  0.41349  1.0000
  O   O3        1.0  0.09257  0.31862  0.08651  1.0000
  O   O4        1.0  0.40743  0.68138  0.08651  1.0000
  O   O5        1.0  0.59257  0.18138  0.58651  1.0000
  O   O6        1.0  0.90743  0.81862  0.58651  1.0000
  O   O7        1.0  0.90743  0.68138  0.91349  1.0000
  O   O8        1.0  0.59257  0.31862  0.91349  1.0000
  O   O9        1.0  0.56391  0.80759  0.61301  1.0000
  O   O10       1.0  0.93609  0.19241  0.61301  1.0000
  O   O11       1.0  0.93609  0.30759  0.88699  1.0000
  O   O12       1.0  0.56391  0.69241  0.88699  1.0000
  O   O13       1.0  0.43609  0.19241  0.38699  1.0000
  O   O14       1.0  0.06391  0.80759  0.38699  1.0000
  O   O15       1.0  0.06391  0.69241  0.11301  1.0000
  O   O16       1.0  0.43609  0.30759  0.11301  1.0000
  O   O17       1.0  0.25813  0.59455  0.36531  1.0000
  O   O18       1.0  0.24187  0.40545  0.36531  1.0000
  O   O19       1.0  0.24187  0.09455  0.13469  1.0000
  O   O20       1.0  0.25813  0.90545  0.13469  1.0000
  O   O21       1.0  0.74187  0.40545  0.63469  1.0000
  O   O22       1.0  0.75813  0.59455  0.63469  1.0000
  O   O23       1.0  0.75813  0.90545  0.86531  1.0000
  O   O24       1.0  0.74187  0.09455  0.86531  1.0000
  C   C1        1.0  0.52423  0.77850  0.48366  1.0000
  C   C2        1.0  0.97577  0.22150  0.48366  1.0000
  C   C3        1.0  0.97577  0.27850  0.01634  1.0000
  C   C4        1.0  0.52423  0.72150  0.01634  1.0000
  C   C5        1.0  0.47577  0.22150  0.51634  1.0000
  C   C6        1.0  0.02423  0.77850  0.51634  1.0000
  C   C7        1.0  0.02423  0.72150  0.98366  1.0000
  C   C8        1.0  0.47577  0.27850  0.98366  1.0000
  H   H1        1.0  0.58580  0.72320  0.43630  1.0000
  H   H2        1.0  0.91420  0.27680  0.43630  1.0000
  H   H3        1.0  0.91420  0.22320  0.06370  1.0000
  H   H4        1.0  0.58580  0.77680  0.06370  1.0000
  H   H5        1.0  0.41420  0.27680  0.56370  1.0000
  H   H6        1.0  0.08580  0.72320  0.56370  1.0000
  H   H7        1.0  0.08580  0.77680  0.93630  1.0000
  H   H8        1.0  0.41420  0.22320  0.93630  1.0000
  C   C9        1.0  0.25000  0.50000  0.30171  1.0000
  C   C10       1.0  0.25000  0.00000  0.19829  1.0000
  C   C11       1.0  0.75000  0.50000  0.69829  1.0000
  C   C12       1.0  0.75000  0.00000  0.80171  1.0000
  H   H9        1.0  0.25000  0.50000  0.19780  1.0000
  H   H10       1.0  0.25000  0.00000  0.30220  1.0000
  H   H11       1.0  0.75000  0.50000  0.80220  1.0000
  H   H12       1.0  0.75000  0.00000  0.69780  1.0000
