data_image0
_chemical_formula_structural       Zn4O24C4H4C8H8
_chemical_formula_sum              "Zn4 O24 C12 H12"
_cell_length_a       8.3493
_cell_length_b       11.7276
_cell_length_c       8.9089
_cell_angle_alpha    90
_cell_angle_beta     90
_cell_angle_gamma    90

_space_group_name_H-M_alt    "P 1"
_space_group_IT_number       1

loop_
  _space_group_symop_operation_xyz
  'x, y, z'

loop_
  _atom_site_type_symbol
  _atom_site_label
  _atom_site_symmetry_multiplicity
  _atom_site_fract_x
  _atom_site_fract_y
  _atom_site_fract_z
  _atom_site_occupancy
  Zn  Zn1       1.0  0.25565  0.25000  0.25000  1.0000
  Zn  Zn2       1.0  0.24435  0.75000  0.25000  1.0000
  Zn  Zn3       1.0  0.74435  0.75000  0.75000  1.0000
  Zn  Zn4       1.0  0.75565  0.25000  0.75000  1.0000
  O   O1        1.0  0.25761  0.40584  0.36451  1.0000
  O   O2        1.0  0.24239  0.59416  0.36451  1.0000
  O   O3        1.0  0.24239  0.90584  0.13549  1.0000
  O   O4        1.0  0.25761  0.09416  0.13549  1.0000
  O   O5        1.0  0.74239  0.59416  0.63549  1.0000
  O   O6        1.0  0.75761  0.40584  0.63549  1.0000
  O   O7        1.0  0.75761  0.09416  0.86451  1.0000
  O   O8        1.0  0.74239  0.90584  0.86451  1.0000
  O   O9        1.0  0.40672  0.18209  0.41359  1.0000
  O   O10       1.0  0.09328  0.81791  0.41359  1.0000
  O   O11       1.0  0.09328  0.68209  0.08641  1.0000
  O   O12       1.0  0.40672  0.31791  0.08641  1.0000
  O   O13       1.0  0.59328  0.81791  0.58641  1.0000
  O   O14       1.0  0.90672  0.18209  0.58641  1.0000
  O   O15       1.0  0.90672  0.31791  0.91359  1.0000
  O   O16       1.0  0.59328  0.68209  0.91359  1.0000
  O   O17       1.0  0.56379  0.19234  0.61254  1.0000
  O   O18       1.0  0.93621  0.80766  0.61254  1.0000
  O   O19       1.0  0.93621  0.69234  0.88746  1.0000
  O   O20       1.0  0.56379  0.30766  0.88746  1.0000
  O   O21       1.0  0.43621  0.80766  0.38746  1.0000
  O   O22       1.0  0.06379  0.19234  0.38746  1.0000
  O   O23       1.0  0.06379  0.30766  0.11254  1.0000
  O   O24       1.0  0.43621  0.69234  0.11254  1.0000
  C   C1        1.0  0.25000  0.50000  0.30190  1.0000
  C   C2        1.0  0.25000  0.00000  0.19810  1.0000
  C   C3        1.0  0.75000  0.50000  0.69810  1.0000
  C   C4        1.0  0.75000  0.00000  0.80190  1.0000
  H   H1        1.0  0.25000  0.50000  0.19750  1.0000
  H   H2        1.0  0.25000  0.00000  0.30250  1.0000
  H   H3        1.0  0.75000  0.50000  0.80250  1.0000
  H   H4        1.0  0.75000  0.00000  0.69750  1.0000
  C   C5        1.0  0.52260  0.22178  0.48390  1.0000
  C   C6        1.0  0.97740  0.77822  0.48390  1.0000
  C   C7        1.0  0.97740  0.72178  0.01610  1.0000
  C   C8        1.0  0.52260  0.27822  0.01610  1.0000
  C   C9        1.0  0.47740  0.77822  0.51610  1.0000
  C   C10       1.0  0.02260  0.22178  0.51610  1.0000
  C   C11       1.0  0.02260  0.27822  0.98390  1.0000
  C   C12       1.0  0.47740  0.72178  0.98390  1.0000
  H   H5        1.0  0.58330  0.27780  0.43670  1.0000
  H   H6        1.0  0.91670  0.72220  0.43670  1.0000
  H   H7        1.0  0.91670  0.77780  0.06330  1.0000
  H   H8        1.0  0.58330  0.22220  0.06330  1.0000
  H   H9        1.0  0.41670  0.72220  0.56330  1.0000
  H   H10       1.0  0.08330  0.27780  0.56330  1.0000
  H   H11       1.0  0.08330  0.22220  0.93670  1.0000
  H   H12       1.0  0.41670  0.77780  0.93670  1.0000
