data_image0
_chemical_formula_structural       Zn4O24C8H8C4H4
_chemical_formula_sum              "Zn4 O24 C12 H12"
_cell_length_a       8.3606
_cell_length_b       11.7463
_cell_length_c       8.9453
_cell_angle_alpha    90
_cell_angle_beta     90
_cell_angle_gamma    90

_space_group_name_H-M_alt    "P 1"
_space_group_IT_number       1

loop_
  _space_group_symop_operation_xyz
  'x, y, z'

loop_
  _atom_site_type_symbol
  _atom_site_label
  _atom_site_symmetry_multiplicity
  _atom_site_fract_x
  _atom_site_fract_y
  _atom_site_fract_z
  _atom_site_occupancy
  Zn  Zn1       1.0  0.25598  0.75000  0.25000  1.0000
  Zn  Zn2       1.0  0.24402  0.25000  0.25000  1.0000
  Zn  Zn3       1.0  0.74402  0.25000  0.75000  1.0000
  Zn  Zn4       1.0  0.75598  0.75000  0.75000  1.0000
  O   O1        1.0  0.40691  0.81821  0.41362  1.0000
  O   O2        1.0  0.09309  0.18179  0.41362  1.0000
  O   O3        1.0  0.09309  0.31821  0.08638  1.0000
  O   O4        1.0  0.40691  0.68179  0.08638  1.0000
  O   O5        1.0  0.59309  0.18179  0.58638  1.0000
  O   O6        1.0  0.90691  0.81821  0.58638  1.0000
  O   O7        1.0  0.90691  0.68179  0.91362  1.0000
  O   O8        1.0  0.59309  0.31821  0.91362  1.0000
  O   O9        1.0  0.56349  0.80743  0.61273  1.0000
  O   O10       1.0  0.93651  0.19257  0.61273  1.0000
  O   O11       1.0  0.93651  0.30743  0.88727  1.0000
  O   O12       1.0  0.56349  0.69257  0.88727  1.0000
  O   O13       1.0  0.43651  0.19257  0.38727  1.0000
  O   O14       1.0  0.06349  0.80743  0.38727  1.0000
  O   O15       1.0  0.06349  0.69257  0.11273  1.0000
  O   O16       1.0  0.43651  0.30743  0.11273  1.0000
  O   O17       1.0  0.25758  0.59445  0.36490  1.0000
  O   O18       1.0  0.24242  0.40555  0.36490  1.0000
  O   O19       1.0  0.24242  0.09445  0.13510  1.0000
  O   O20       1.0  0.25758  0.90555  0.13510  1.0000
  O   O21       1.0  0.74242  0.40555  0.63510  1.0000
  O   O22       1.0  0.75758  0.59445  0.63510  1.0000
  O   O23       1.0  0.75758  0.90555  0.86490  1.0000
  O   O24       1.0  0.74242  0.09445  0.86490  1.0000
  C   C1        1.0  0.52357  0.77839  0.48363  1.0000
  C   C2        1.0  0.97643  0.22161  0.48363  1.0000
  C   C3        1.0  0.97643  0.27839  0.01637  1.0000
  C   C4        1.0  0.52357  0.72161  0.01637  1.0000
  C   C5        1.0  0.47643  0.22161  0.51637  1.0000
  C   C6        1.0  0.02357  0.77839  0.51637  1.0000
  C   C7        1.0  0.02357  0.72161  0.98363  1.0000
  C   C8        1.0  0.47643  0.27839  0.98363  1.0000
  H   H1        1.0  0.58510  0.72320  0.43620  1.0000
  H   H2        1.0  0.91490  0.27680  0.43620  1.0000
  H   H3        1.0  0.91490  0.22320  0.06380  1.0000
  H   H4        1.0  0.58510  0.77680  0.06380  1.0000
  H   H5        1.0  0.41490  0.27680  0.56380  1.0000
  H   H6        1.0  0.08510  0.72320  0.56380  1.0000
  H   H7        1.0  0.08510  0.77680  0.93620  1.0000
  H   H8        1.0  0.41490  0.22320  0.93620  1.0000
  C   C9        1.0  0.25000  0.50000  0.30149  1.0000
  C   C10       1.0  0.25000  0.00000  0.19851  1.0000
  C   C11       1.0  0.75000  0.50000  0.69851  1.0000
  C   C12       1.0  0.75000  0.00000  0.80149  1.0000
  H   H9        1.0  0.25000  0.50000  0.19750  1.0000
  H   H10       1.0  0.25000  0.00000  0.30250  1.0000
  H   H11       1.0  0.75000  0.50000  0.80250  1.0000
  H   H12       1.0  0.75000  0.00000  0.69750  1.0000
