data_image0
_chemical_formula_structural       Fe4O24C4H4C8H8
_chemical_formula_sum              "Fe4 O24 C12 H12"
_cell_length_a       8.4156
_cell_length_b       11.8504
_cell_length_c       8.9474
_cell_angle_alpha    90
_cell_angle_beta     90
_cell_angle_gamma    90

_space_group_name_H-M_alt    "P 1"
_space_group_IT_number       1

loop_
  _space_group_symop_operation_xyz
  'x, y, z'

loop_
  _atom_site_type_symbol
  _atom_site_label
  _atom_site_symmetry_multiplicity
  _atom_site_fract_x
  _atom_site_fract_y
  _atom_site_fract_z
  _atom_site_occupancy
  Fe  Fe1       1.0  0.25243  0.25000  0.25000  1.0000
  Fe  Fe2       1.0  0.24757  0.75000  0.25000  1.0000
  Fe  Fe3       1.0  0.74757  0.75000  0.75000  1.0000
  Fe  Fe4       1.0  0.75243  0.25000  0.75000  1.0000
  O   O1        1.0  0.25631  0.40623  0.36867  1.0000
  O   O2        1.0  0.24369  0.59377  0.36867  1.0000
  O   O3        1.0  0.24369  0.90623  0.13133  1.0000
  O   O4        1.0  0.25631  0.09377  0.13133  1.0000
  O   O5        1.0  0.74369  0.59377  0.63133  1.0000
  O   O6        1.0  0.75631  0.40623  0.63133  1.0000
  O   O7        1.0  0.75631  0.09377  0.86867  1.0000
  O   O8        1.0  0.74369  0.90623  0.86867  1.0000
  O   O9        1.0  0.40664  0.18276  0.41311  1.0000
  O   O10       1.0  0.09336  0.81724  0.41311  1.0000
  O   O11       1.0  0.09336  0.68276  0.08689  1.0000
  O   O12       1.0  0.40664  0.31724  0.08689  1.0000
  O   O13       1.0  0.59336  0.81724  0.58689  1.0000
  O   O14       1.0  0.90664  0.18276  0.58689  1.0000
  O   O15       1.0  0.90664  0.31724  0.91311  1.0000
  O   O16       1.0  0.59336  0.68276  0.91311  1.0000
  O   O17       1.0  0.56200  0.19299  0.61162  1.0000
  O   O18       1.0  0.93800  0.80701  0.61162  1.0000
  O   O19       1.0  0.93800  0.69299  0.88838  1.0000
  O   O20       1.0  0.56200  0.30701  0.88838  1.0000
  O   O21       1.0  0.43800  0.80701  0.38838  1.0000
  O   O22       1.0  0.06200  0.19299  0.38838  1.0000
  O   O23       1.0  0.06200  0.30701  0.11162  1.0000
  O   O24       1.0  0.43800  0.69299  0.11162  1.0000
  C   C1        1.0  0.25000  0.50000  0.30650  1.0000
  C   C2        1.0  0.25000  0.00000  0.19350  1.0000
  C   C3        1.0  0.75000  0.50000  0.69350  1.0000
  C   C4        1.0  0.75000  0.00000  0.80650  1.0000
  H   H1        1.0  0.25000  0.50000  0.20260  1.0000
  H   H2        1.0  0.25000  0.00000  0.29740  1.0000
  H   H3        1.0  0.75000  0.50000  0.79740  1.0000
  H   H4        1.0  0.75000  0.00000  0.70260  1.0000
  C   C5        1.0  0.52170  0.22121  0.48310  1.0000
  C   C6        1.0  0.97830  0.77879  0.48310  1.0000
  C   C7        1.0  0.97830  0.72121  0.01690  1.0000
  C   C8        1.0  0.52170  0.27879  0.01690  1.0000
  C   C9        1.0  0.47830  0.77879  0.51690  1.0000
  C   C10       1.0  0.02170  0.22121  0.51690  1.0000
  C   C11       1.0  0.02170  0.27879  0.98310  1.0000
  C   C12       1.0  0.47830  0.72121  0.98310  1.0000
  H   H5        1.0  0.58310  0.27570  0.43550  1.0000
  H   H6        1.0  0.91690  0.72430  0.43550  1.0000
  H   H7        1.0  0.91690  0.77570  0.06450  1.0000
  H   H8        1.0  0.58310  0.22430  0.06450  1.0000
  H   H9        1.0  0.41690  0.72430  0.56450  1.0000
  H   H10       1.0  0.08310  0.27570  0.56450  1.0000
  H   H11       1.0  0.08310  0.22430  0.93550  1.0000
  H   H12       1.0  0.41690  0.77570  0.93550  1.0000
