data_image0
_chemical_formula_structural       Cu4O24C4H4C4H4C4H4
_chemical_formula_sum              "Cu4 O24 C12 H12"
_cell_length_a       8.5544
_cell_length_b       9.0497
_cell_length_c       11.3717
_cell_angle_alpha    90
_cell_angle_beta     90
_cell_angle_gamma    90

_space_group_name_H-M_alt    "P 1"
_space_group_IT_number       1

loop_
  _space_group_symop_operation_xyz
  'x, y, z'

loop_
  _atom_site_type_symbol
  _atom_site_label
  _atom_site_symmetry_multiplicity
  _atom_site_fract_x
  _atom_site_fract_y
  _atom_site_fract_z
  _atom_site_occupancy
  Cu  Cu1       1.0  0.99629  0.99921  0.47639  1.0000
  Cu  Cu2       1.0  0.00371  0.00079  0.97639  1.0000
  Cu  Cu3       1.0  0.50371  0.49921  0.97639  1.0000
  Cu  Cu4       1.0  0.49629  0.50079  0.47639  1.0000
  O   O1        1.0  0.00014  0.88947  0.32292  1.0000
  O   O2        1.0  0.99986  0.11053  0.82292  1.0000
  O   O3        1.0  0.49986  0.38947  0.82292  1.0000
  O   O4        1.0  0.50014  0.61053  0.32292  1.0000
  O   O5        1.0  0.20942  0.15338  0.41585  1.0000
  O   O6        1.0  0.79058  0.84662  0.91585  1.0000
  O   O7        1.0  0.29058  0.65338  0.91585  1.0000
  O   O8        1.0  0.70942  0.34662  0.41585  1.0000
  O   O9        1.0  0.01230  0.89127  0.12864  1.0000
  O   O10       1.0  0.98770  0.10873  0.62864  1.0000
  O   O11       1.0  0.48770  0.39127  0.62864  1.0000
  O   O12       1.0  0.51230  0.60873  0.12864  1.0000
  O   O13       1.0  0.36385  0.34855  0.40511  1.0000
  O   O14       1.0  0.63615  0.65145  0.90511  1.0000
  O   O15       1.0  0.13615  0.84855  0.90511  1.0000
  O   O16       1.0  0.86385  0.15145  0.40511  1.0000
  O   O17       1.0  0.16890  0.87736  0.53838  1.0000
  O   O18       1.0  0.83110  0.12264  0.03838  1.0000
  O   O19       1.0  0.33110  0.37736  0.03838  1.0000
  O   O20       1.0  0.66890  0.62264  0.53838  1.0000
  O   O21       1.0  0.32173  0.68052  0.55046  1.0000
  O   O22       1.0  0.67827  0.31948  0.05046  1.0000
  O   O23       1.0  0.17827  0.18052  0.05046  1.0000
  O   O24       1.0  0.82173  0.81948  0.55046  1.0000
  C   C1        1.0  0.20560  0.74551  0.51213  1.0000
  C   C2        1.0  0.79440  0.25449  0.01213  1.0000
  C   C3        1.0  0.29440  0.24551  0.01213  1.0000
  C   C4        1.0  0.70560  0.75449  0.51213  1.0000
  H   H1        1.0  0.14070  0.69450  0.46060  1.0000
  H   H2        1.0  0.85930  0.30550  0.96060  1.0000
  H   H3        1.0  0.35930  0.19450  0.96060  1.0000
  H   H4        1.0  0.64070  0.80550  0.46060  1.0000
  C   C5        1.0  0.00709  0.95480  0.22570  1.0000
  C   C6        1.0  0.99291  0.04520  0.72570  1.0000
  C   C7        1.0  0.49291  0.45480  0.72570  1.0000
  C   C8        1.0  0.50709  0.54520  0.22570  1.0000
  H   H5        1.0  0.00840  0.05760  0.22620  1.0000
  H   H6        1.0  0.99160  0.94240  0.72620  1.0000
  H   H7        1.0  0.49160  0.55760  0.72620  1.0000
  H   H8        1.0  0.50840  0.44240  0.22620  1.0000
  C   C9        1.0  0.24864  0.27850  0.44700  1.0000
  C   C10       1.0  0.75136  0.72150  0.94700  1.0000
  C   C11       1.0  0.25136  0.77850  0.94700  1.0000
  C   C12       1.0  0.74864  0.22150  0.44700  1.0000
  H   H9        1.0  0.18960  0.32440  0.50520  1.0000
  H   H10       1.0  0.81040  0.67560  0.00520  1.0000
  H   H11       1.0  0.31040  0.82440  0.00520  1.0000
  H   H12       1.0  0.68960  0.17560  0.50520  1.0000
