data_image0
_chemical_formula_structural       Zn4O24C8H8C4H4
_chemical_formula_sum              "Zn4 O24 C12 H12"
_cell_length_a       8.3302
_cell_length_b       11.7153
_cell_length_c       8.9475
_cell_angle_alpha    90
_cell_angle_beta     90
_cell_angle_gamma    90

_space_group_name_H-M_alt    "P 1"
_space_group_IT_number       1

loop_
  _space_group_symop_operation_xyz
  'x, y, z'

loop_
  _atom_site_type_symbol
  _atom_site_label
  _atom_site_symmetry_multiplicity
  _atom_site_fract_x
  _atom_site_fract_y
  _atom_site_fract_z
  _atom_site_occupancy
  Zn  Zn1       1.0  0.25785  0.75000  0.25000  1.0000
  Zn  Zn2       1.0  0.24215  0.25000  0.25000  1.0000
  Zn  Zn3       1.0  0.74215  0.25000  0.75000  1.0000
  Zn  Zn4       1.0  0.75785  0.75000  0.75000  1.0000
  O   O1        1.0  0.40851  0.81937  0.41323  1.0000
  O   O2        1.0  0.09149  0.18063  0.41323  1.0000
  O   O3        1.0  0.09149  0.31937  0.08677  1.0000
  O   O4        1.0  0.40851  0.68063  0.08677  1.0000
  O   O5        1.0  0.59149  0.18063  0.58677  1.0000
  O   O6        1.0  0.90851  0.81937  0.58677  1.0000
  O   O7        1.0  0.90851  0.68063  0.91323  1.0000
  O   O8        1.0  0.59149  0.31937  0.91323  1.0000
  O   O9        1.0  0.56482  0.80794  0.61349  1.0000
  O   O10       1.0  0.93518  0.19206  0.61349  1.0000
  O   O11       1.0  0.93518  0.30794  0.88651  1.0000
  O   O12       1.0  0.56482  0.69206  0.88651  1.0000
  O   O13       1.0  0.43518  0.19206  0.38651  1.0000
  O   O14       1.0  0.06482  0.80794  0.38651  1.0000
  O   O15       1.0  0.06482  0.69206  0.11349  1.0000
  O   O16       1.0  0.43518  0.30794  0.11349  1.0000
  O   O17       1.0  0.25914  0.59475  0.36610  1.0000
  O   O18       1.0  0.24086  0.40525  0.36610  1.0000
  O   O19       1.0  0.24086  0.09475  0.13390  1.0000
  O   O20       1.0  0.25914  0.90525  0.13390  1.0000
  O   O21       1.0  0.74086  0.40525  0.63390  1.0000
  O   O22       1.0  0.75914  0.59475  0.63390  1.0000
  O   O23       1.0  0.75914  0.90525  0.86610  1.0000
  O   O24       1.0  0.74086  0.09475  0.86610  1.0000
  C   C1        1.0  0.52540  0.77878  0.48378  1.0000
  C   C2        1.0  0.97460  0.22122  0.48378  1.0000
  C   C3        1.0  0.97460  0.27878  0.01622  1.0000
  C   C4        1.0  0.52540  0.72122  0.01622  1.0000
  C   C5        1.0  0.47460  0.22122  0.51622  1.0000
  C   C6        1.0  0.02540  0.77878  0.51622  1.0000
  C   C7        1.0  0.02540  0.72122  0.98378  1.0000
  C   C8        1.0  0.47460  0.27878  0.98378  1.0000
  H   H1        1.0  0.58700  0.72320  0.43660  1.0000
  H   H2        1.0  0.91300  0.27680  0.43660  1.0000
  H   H3        1.0  0.91300  0.22320  0.06340  1.0000
  H   H4        1.0  0.58700  0.77680  0.06340  1.0000
  H   H5        1.0  0.41300  0.27680  0.56340  1.0000
  H   H6        1.0  0.08700  0.72320  0.56340  1.0000
  H   H7        1.0  0.08700  0.77680  0.93660  1.0000
  H   H8        1.0  0.41300  0.22320  0.93660  1.0000
  C   C9        1.0  0.25000  0.50000  0.30217  1.0000
  C   C10       1.0  0.25000  0.00000  0.19783  1.0000
  C   C11       1.0  0.75000  0.50000  0.69783  1.0000
  C   C12       1.0  0.75000  0.00000  0.80217  1.0000
  H   H9        1.0  0.25000  0.50000  0.19820  1.0000
  H   H10       1.0  0.25000  0.00000  0.30180  1.0000
  H   H11       1.0  0.75000  0.50000  0.80180  1.0000
  H   H12       1.0  0.75000  0.00000  0.69820  1.0000
