data_image0
_chemical_formula_structural       Cu4O24C4H4C4H4C4H4
_chemical_formula_sum              "Cu4 O24 C12 H12"
_cell_length_a       8.4877
_cell_length_b       9.0448
_cell_length_c       11.3269
_cell_angle_alpha    90
_cell_angle_beta     90
_cell_angle_gamma    90

_space_group_name_H-M_alt    "P 1"
_space_group_IT_number       1

loop_
  _space_group_symop_operation_xyz
  'x, y, z'

loop_
  _atom_site_type_symbol
  _atom_site_label
  _atom_site_symmetry_multiplicity
  _atom_site_fract_x
  _atom_site_fract_y
  _atom_site_fract_z
  _atom_site_occupancy
  Cu  Cu1       1.0  0.99290  0.99914  0.47623  1.0000
  Cu  Cu2       1.0  0.00710  0.00086  0.97623  1.0000
  Cu  Cu3       1.0  0.50710  0.49914  0.97623  1.0000
  Cu  Cu4       1.0  0.49290  0.50086  0.47623  1.0000
  O   O1        1.0  0.99756  0.88740  0.32358  1.0000
  O   O2        1.0  0.00244  0.11260  0.82358  1.0000
  O   O3        1.0  0.50244  0.38740  0.82358  1.0000
  O   O4        1.0  0.49756  0.61260  0.32358  1.0000
  O   O5        1.0  0.20614  0.15134  0.41538  1.0000
  O   O6        1.0  0.79386  0.84866  0.91538  1.0000
  O   O7        1.0  0.29386  0.65134  0.91538  1.0000
  O   O8        1.0  0.70614  0.34866  0.41538  1.0000
  O   O9        1.0  0.01478  0.88930  0.12811  1.0000
  O   O10       1.0  0.98522  0.11070  0.62811  1.0000
  O   O11       1.0  0.48522  0.38930  0.62811  1.0000
  O   O12       1.0  0.51478  0.61070  0.12811  1.0000
  O   O13       1.0  0.35998  0.34903  0.40312  1.0000
  O   O14       1.0  0.64002  0.65097  0.90312  1.0000
  O   O15       1.0  0.14002  0.84903  0.90312  1.0000
  O   O16       1.0  0.85998  0.15097  0.40312  1.0000
  O   O17       1.0  0.16681  0.87794  0.53933  1.0000
  O   O18       1.0  0.83319  0.12206  0.03933  1.0000
  O   O19       1.0  0.33319  0.37794  0.03933  1.0000
  O   O20       1.0  0.66681  0.62206  0.53933  1.0000
  O   O21       1.0  0.32011  0.67948  0.55211  1.0000
  O   O22       1.0  0.67989  0.32052  0.05211  1.0000
  O   O23       1.0  0.17989  0.17948  0.05211  1.0000
  O   O24       1.0  0.82011  0.82052  0.55211  1.0000
  C   C1        1.0  0.20230  0.74460  0.51341  1.0000
  C   C2        1.0  0.79770  0.25540  0.01341  1.0000
  C   C3        1.0  0.29770  0.24460  0.01341  1.0000
  C   C4        1.0  0.70230  0.75540  0.51341  1.0000
  H   H1        1.0  0.13590  0.69340  0.46250  1.0000
  H   H2        1.0  0.86410  0.30660  0.96250  1.0000
  H   H3        1.0  0.36410  0.19340  0.96250  1.0000
  H   H4        1.0  0.63590  0.80660  0.46250  1.0000
  C   C5        1.0  0.00840  0.95398  0.22570  1.0000
  C   C6        1.0  0.99160  0.04602  0.72570  1.0000
  C   C7        1.0  0.49160  0.45398  0.72570  1.0000
  C   C8        1.0  0.50840  0.54602  0.22570  1.0000
  H   H5        1.0  0.01180  0.05680  0.22630  1.0000
  H   H6        1.0  0.98820  0.94320  0.72630  1.0000
  H   H7        1.0  0.48820  0.55680  0.72630  1.0000
  H   H8        1.0  0.51180  0.44320  0.22630  1.0000
  C   C9        1.0  0.24480  0.27760  0.44682  1.0000
  C   C10       1.0  0.75520  0.72240  0.94682  1.0000
  C   C11       1.0  0.25520  0.77760  0.94682  1.0000
  C   C12       1.0  0.74480  0.22240  0.44682  1.0000
  H   H9        1.0  0.18600  0.32290  0.50600  1.0000
  H   H10       1.0  0.81400  0.67710  0.00600  1.0000
  H   H11       1.0  0.31400  0.82290  0.00600  1.0000
  H   H12       1.0  0.68600  0.17710  0.50600  1.0000
