data_image0
_chemical_formula_structural       Co4O24C4H4C8H8
_chemical_formula_sum              "Co4 O24 C12 H12"
_cell_length_a       8.3343
_cell_length_b       11.753
_cell_length_c       8.9111
_cell_angle_alpha    90
_cell_angle_beta     90
_cell_angle_gamma    90

_space_group_name_H-M_alt    "P 1"
_space_group_IT_number       1

loop_
  _space_group_symop_operation_xyz
  'x, y, z'

loop_
  _atom_site_type_symbol
  _atom_site_label
  _atom_site_symmetry_multiplicity
  _atom_site_fract_x
  _atom_site_fract_y
  _atom_site_fract_z
  _atom_site_occupancy
  Co  Co1       1.0  0.25371  0.25000  0.25000  1.0000
  Co  Co2       1.0  0.24629  0.75000  0.25000  1.0000
  Co  Co3       1.0  0.74629  0.75000  0.75000  1.0000
  Co  Co4       1.0  0.75371  0.25000  0.75000  1.0000
  O   O1        1.0  0.25671  0.40566  0.36555  1.0000
  O   O2        1.0  0.24329  0.59434  0.36555  1.0000
  O   O3        1.0  0.24329  0.90566  0.13445  1.0000
  O   O4        1.0  0.25671  0.09434  0.13445  1.0000
  O   O5        1.0  0.74329  0.59434  0.63445  1.0000
  O   O6        1.0  0.75671  0.40566  0.63445  1.0000
  O   O7        1.0  0.75671  0.09434  0.86555  1.0000
  O   O8        1.0  0.74329  0.90566  0.86555  1.0000
  O   O9        1.0  0.40688  0.18273  0.41332  1.0000
  O   O10       1.0  0.09312  0.81727  0.41332  1.0000
  O   O11       1.0  0.09312  0.68273  0.08668  1.0000
  O   O12       1.0  0.40688  0.31727  0.08668  1.0000
  O   O13       1.0  0.59312  0.81727  0.58668  1.0000
  O   O14       1.0  0.90688  0.18273  0.58668  1.0000
  O   O15       1.0  0.90688  0.31727  0.91332  1.0000
  O   O16       1.0  0.59312  0.68273  0.91332  1.0000
  O   O17       1.0  0.56460  0.19227  0.61190  1.0000
  O   O18       1.0  0.93540  0.80773  0.61190  1.0000
  O   O19       1.0  0.93540  0.69227  0.88810  1.0000
  O   O20       1.0  0.56460  0.30773  0.88810  1.0000
  O   O21       1.0  0.43540  0.80773  0.38810  1.0000
  O   O22       1.0  0.06460  0.19227  0.38810  1.0000
  O   O23       1.0  0.06460  0.30773  0.11190  1.0000
  O   O24       1.0  0.43540  0.69227  0.11190  1.0000
  C   C1        1.0  0.25000  0.50000  0.30300  1.0000
  C   C2        1.0  0.25000  0.00000  0.19700  1.0000
  C   C3        1.0  0.75000  0.50000  0.69700  1.0000
  C   C4        1.0  0.75000  0.00000  0.80300  1.0000
  H   H1        1.0  0.25000  0.50000  0.19860  1.0000
  H   H2        1.0  0.25000  0.00000  0.30140  1.0000
  H   H3        1.0  0.75000  0.50000  0.80140  1.0000
  H   H4        1.0  0.75000  0.00000  0.69860  1.0000
  C   C5        1.0  0.52340  0.22225  0.48350  1.0000
  C   C6        1.0  0.97660  0.77775  0.48350  1.0000
  C   C7        1.0  0.97660  0.72225  0.01650  1.0000
  C   C8        1.0  0.52340  0.27775  0.01650  1.0000
  C   C9        1.0  0.47660  0.77775  0.51650  1.0000
  C   C10       1.0  0.02340  0.22225  0.51650  1.0000
  C   C11       1.0  0.02340  0.27775  0.98350  1.0000
  C   C12       1.0  0.47660  0.72225  0.98350  1.0000
  H   H5        1.0  0.58410  0.27830  0.43660  1.0000
  H   H6        1.0  0.91590  0.72170  0.43660  1.0000
  H   H7        1.0  0.91590  0.77830  0.06340  1.0000
  H   H8        1.0  0.58410  0.22170  0.06340  1.0000
  H   H9        1.0  0.41590  0.72170  0.56340  1.0000
  H   H10       1.0  0.08410  0.27830  0.56340  1.0000
  H   H11       1.0  0.08410  0.22170  0.93660  1.0000
  H   H12       1.0  0.41590  0.77830  0.93660  1.0000
