data_image0
_chemical_formula_structural       Cu4O24C4H4C4H4C4H4
_chemical_formula_sum              "Cu4 O24 C12 H12"
_cell_length_a       8.5009
_cell_length_b       9.0436
_cell_length_c       11.3352
_cell_angle_alpha    90
_cell_angle_beta     90
_cell_angle_gamma    90

_space_group_name_H-M_alt    "P 1"
_space_group_IT_number       1

loop_
  _space_group_symop_operation_xyz
  'x, y, z'

loop_
  _atom_site_type_symbol
  _atom_site_label
  _atom_site_symmetry_multiplicity
  _atom_site_fract_x
  _atom_site_fract_y
  _atom_site_fract_z
  _atom_site_occupancy
  Cu  Cu1       1.0  0.99354  0.99916  0.47630  1.0000
  Cu  Cu2       1.0  0.00646  0.00084  0.97630  1.0000
  Cu  Cu3       1.0  0.50646  0.49916  0.97630  1.0000
  Cu  Cu4       1.0  0.49354  0.50084  0.47630  1.0000
  O   O1        1.0  0.99800  0.88790  0.32339  1.0000
  O   O2        1.0  0.00200  0.11210  0.82339  1.0000
  O   O3        1.0  0.50200  0.38790  0.82339  1.0000
  O   O4        1.0  0.49800  0.61210  0.32339  1.0000
  O   O5        1.0  0.20676  0.15169  0.41553  1.0000
  O   O6        1.0  0.79324  0.84831  0.91553  1.0000
  O   O7        1.0  0.29324  0.65169  0.91553  1.0000
  O   O8        1.0  0.70676  0.34831  0.41553  1.0000
  O   O9        1.0  0.01433  0.88957  0.12820  1.0000
  O   O10       1.0  0.98567  0.11043  0.62820  1.0000
  O   O11       1.0  0.48567  0.38957  0.62820  1.0000
  O   O12       1.0  0.51433  0.61043  0.12820  1.0000
  O   O13       1.0  0.36079  0.34896  0.40350  1.0000
  O   O14       1.0  0.63921  0.65104  0.90350  1.0000
  O   O15       1.0  0.13921  0.84896  0.90350  1.0000
  O   O16       1.0  0.86079  0.15104  0.40350  1.0000
  O   O17       1.0  0.16715  0.87785  0.53914  1.0000
  O   O18       1.0  0.83285  0.12215  0.03914  1.0000
  O   O19       1.0  0.33285  0.37785  0.03914  1.0000
  O   O20       1.0  0.66715  0.62215  0.53914  1.0000
  O   O21       1.0  0.32039  0.67968  0.55181  1.0000
  O   O22       1.0  0.67961  0.32032  0.05181  1.0000
  O   O23       1.0  0.17961  0.17968  0.05181  1.0000
  O   O24       1.0  0.82039  0.82032  0.55181  1.0000
  C   C1        1.0  0.20290  0.74480  0.51312  1.0000
  C   C2        1.0  0.79710  0.25520  0.01312  1.0000
  C   C3        1.0  0.29710  0.24480  0.01312  1.0000
  C   C4        1.0  0.70290  0.75520  0.51312  1.0000
  H   H1        1.0  0.13680  0.69360  0.46210  1.0000
  H   H2        1.0  0.86320  0.30640  0.96210  1.0000
  H   H3        1.0  0.36320  0.19360  0.96210  1.0000
  H   H4        1.0  0.63680  0.80640  0.46210  1.0000
  C   C5        1.0  0.00810  0.95409  0.22590  1.0000
  C   C6        1.0  0.99190  0.04591  0.72590  1.0000
  C   C7        1.0  0.49190  0.45409  0.72590  1.0000
  C   C8        1.0  0.50810  0.54591  0.22590  1.0000
  H   H5        1.0  0.01120  0.05690  0.22650  1.0000
  H   H6        1.0  0.98880  0.94310  0.72650  1.0000
  H   H7        1.0  0.48880  0.55690  0.72650  1.0000
  H   H8        1.0  0.51120  0.44310  0.22650  1.0000
  C   C9        1.0  0.24560  0.27770  0.44680  1.0000
  C   C10       1.0  0.75440  0.72230  0.94680  1.0000
  C   C11       1.0  0.25440  0.77770  0.94680  1.0000
  C   C12       1.0  0.74560  0.22230  0.44680  1.0000
  H   H9        1.0  0.18670  0.32310  0.50570  1.0000
  H   H10       1.0  0.81330  0.67690  0.00570  1.0000
  H   H11       1.0  0.31330  0.82310  0.00570  1.0000
  H   H12       1.0  0.68670  0.17690  0.50570  1.0000
