data_image0
_chemical_formula_structural       Cu4O24C4H4C4H4C4H4
_chemical_formula_sum              "Cu4 O24 C12 H12"
_cell_length_a       8.5212
_cell_length_b       9.0321
_cell_length_c       11.3497
_cell_angle_alpha    90
_cell_angle_beta     90
_cell_angle_gamma    90

_space_group_name_H-M_alt    "P 1"
_space_group_IT_number       1

loop_
  _space_group_symop_operation_xyz
  'x, y, z'

loop_
  _atom_site_type_symbol
  _atom_site_label
  _atom_site_symmetry_multiplicity
  _atom_site_fract_x
  _atom_site_fract_y
  _atom_site_fract_z
  _atom_site_occupancy
  Cu  Cu1       1.0  0.99625  0.00076  0.49850  1.0000
  Cu  Cu2       1.0  0.00375  0.99924  0.99850  1.0000
  Cu  Cu3       1.0  0.49625  0.49924  0.49850  1.0000
  Cu  Cu4       1.0  0.50375  0.50076  0.99850  1.0000
  O   O1        1.0  0.86350  0.84890  0.56950  1.0000
  O   O2        1.0  0.13650  0.15110  0.06950  1.0000
  O   O3        1.0  0.36350  0.65110  0.56950  1.0000
  O   O4        1.0  0.63650  0.34890  0.06950  1.0000
  O   O5        1.0  0.70880  0.65290  0.55890  1.0000
  O   O6        1.0  0.29120  0.34710  0.05890  1.0000
  O   O7        1.0  0.20880  0.84710  0.55890  1.0000
  O   O8        1.0  0.79120  0.15290  0.05890  1.0000
  O   O9        1.0  0.99980  0.11000  0.65140  1.0000
  O   O10       1.0  0.00020  0.89000  0.15140  1.0000
  O   O11       1.0  0.49980  0.39000  0.65140  1.0000
  O   O12       1.0  0.50020  0.61000  0.15140  1.0000
  O   O13       1.0  0.01200  0.10850  0.84500  1.0000
  O   O14       1.0  0.98800  0.89150  0.34500  1.0000
  O   O15       1.0  0.51200  0.39150  0.84500  1.0000
  O   O16       1.0  0.48800  0.60850  0.34500  1.0000
  O   O17       1.0  0.16810  0.12320  0.43580  1.0000
  O   O18       1.0  0.83190  0.87680  0.93580  1.0000
  O   O19       1.0  0.66810  0.37680  0.43580  1.0000
  O   O20       1.0  0.33190  0.62320  0.93580  1.0000
  O   O21       1.0  0.32190  0.31890  0.42420  1.0000
  O   O22       1.0  0.67810  0.68110  0.92420  1.0000
  O   O23       1.0  0.82190  0.18110  0.42420  1.0000
  O   O24       1.0  0.17810  0.81890  0.92420  1.0000
  C   C1        1.0  0.74830  0.77750  0.52750  1.0000
  C   C2        1.0  0.25170  0.22250  0.02750  1.0000
  C   C3        1.0  0.24830  0.72250  0.52750  1.0000
  C   C4        1.0  0.75170  0.27750  0.02750  1.0000
  H   H1        1.0  0.68950  0.82280  0.46870  1.0000
  H   H2        1.0  0.31050  0.17720  0.96870  1.0000
  H   H3        1.0  0.18950  0.67720  0.46870  1.0000
  H   H4        1.0  0.81050  0.32280  0.96870  1.0000
  C   C5        1.0  0.00730  0.04460  0.74850  1.0000
  C   C6        1.0  0.99270  0.95540  0.24850  1.0000
  C   C7        1.0  0.50730  0.45540  0.74850  1.0000
  C   C8        1.0  0.49270  0.54460  0.24850  1.0000
  H   H5        1.0  0.00950  0.94170  0.74820  1.0000
  H   H6        1.0  0.99050  0.05830  0.24820  1.0000
  H   H7        1.0  0.50950  0.55830  0.74820  1.0000
  H   H8        1.0  0.49050  0.44170  0.24820  1.0000
  C   C9        1.0  0.20680  0.25390  0.46130  1.0000
  C   C10       1.0  0.79320  0.74610  0.96130  1.0000
  C   C11       1.0  0.70680  0.24610  0.46130  1.0000
  C   C12       1.0  0.29320  0.75390  0.96130  1.0000
  H   H9        1.0  0.14190  0.30530  0.51290  1.0000
  H   H10       1.0  0.85810  0.69470  0.01290  1.0000
  H   H11       1.0  0.64190  0.19470  0.51290  1.0000
  H   H12       1.0  0.35810  0.80530  0.01290  1.0000
