data_image0
_chemical_formula_structural       Au2C4H6C4H6C4H6C4H6C4N4O16Rh4
_chemical_formula_sum              "Au2 C20 H24 N4 O16 Rh4"
_cell_length_a       13.0075
_cell_length_b       13.6277
_cell_length_c       13.7398
_cell_angle_alpha    87.339
_cell_angle_beta     78.375
_cell_angle_gamma    80.295

_space_group_name_H-M_alt    "P 1"
_space_group_IT_number       1

loop_
  _space_group_symop_operation_xyz
  'x, y, z'

loop_
  _atom_site_type_symbol
  _atom_site_label
  _atom_site_symmetry_multiplicity
  _atom_site_fract_x
  _atom_site_fract_y
  _atom_site_fract_z
  _atom_site_occupancy
  Au  Au1       1.0  0.40126  0.83106  0.28313  1.0000
  Au  Au2       1.0  0.59874  0.16894  0.71687  1.0000
  C   C1        1.0  0.95250  0.73210  0.11400  1.0000
  C   C2        1.0  0.04750  0.26790  0.88600  1.0000
  C   C3        1.0  0.98140  0.67460  0.01880  1.0000
  C   C4        1.0  0.01860  0.32540  0.98120  1.0000
  H   H1        1.0  0.05140  0.68330  0.98480  1.0000
  H   H2        1.0  0.94860  0.31670  0.01520  1.0000
  H   H3        1.0  0.93110  0.69850  0.97730  1.0000
  H   H4        1.0  0.06890  0.30150  0.02270  1.0000
  H   H5        1.0  0.98020  0.60520  0.03360  1.0000
  H   H6        1.0  0.01980  0.39480  0.96640  1.0000
  C   C5        1.0  0.85140  0.93420  0.44480  1.0000
  C   C6        1.0  0.14860  0.06580  0.55520  1.0000
  C   C7        1.0  0.82220  0.98970  0.54150  1.0000
  C   C8        1.0  0.17780  0.01030  0.45850  1.0000
  H   H7        1.0  0.79080  0.05710  0.52990  1.0000
  H   H8        1.0  0.20920  0.94290  0.47010  1.0000
  H   H9        1.0  0.88490  0.98950  0.56820  1.0000
  H   H10       1.0  0.11510  0.01050  0.43180  1.0000
  H   H11       1.0  0.77210  0.95780  0.58780  1.0000
  H   H12       1.0  0.22790  0.04220  0.41220  1.0000
  C   C9        1.0  0.88600  0.66950  0.38160  1.0000
  C   C10       1.0  0.11400  0.33050  0.61840  1.0000
  C   C11       1.0  0.87600  0.57170  0.43980  1.0000
  C   C12       1.0  0.12400  0.42830  0.56020  1.0000
  H   H13       1.0  0.88230  0.58020  0.50720  1.0000
  H   H14       1.0  0.11770  0.41980  0.49280  1.0000
  H   H15       1.0  0.93140  0.52010  0.40950  1.0000
  H   H16       1.0  0.06860  0.47990  0.59050  1.0000
  H   H17       1.0  0.80790  0.55350  0.43910  1.0000
  H   H18       1.0  0.19210  0.44650  0.56090  1.0000
  C   C13       1.0  0.91520  0.99900  0.17970  1.0000
  C   C14       1.0  0.08480  0.00100  0.82030  1.0000
  C   C15       1.0  0.92170  0.09780  0.12390  1.0000
  C   C16       1.0  0.07830  0.90220  0.87610  1.0000
  H   H19       1.0  0.93110  0.14680  0.16800  1.0000
  H   H20       1.0  0.06890  0.85320  0.83200  1.0000
  H   H21       1.0  0.85720  0.11950  0.09980  1.0000
  H   H22       1.0  0.14280  0.88050  0.90020  1.0000
  H   H23       1.0  0.98100  0.08940  0.06890  1.0000
  H   H24       1.0  0.01900  0.91060  0.93110  1.0000
  C   C17       1.0  0.55240  0.84630  0.27440  1.0000
  C   C18       1.0  0.44760  0.15370  0.72560  1.0000
  C   C19       1.0  0.24950  0.81700  0.29200  1.0000
  C   C20       1.0  0.75050  0.18300  0.70800  1.0000
  N   N1        1.0  0.63830  0.85380  0.27050  1.0000
  N   N2        1.0  0.36170  0.14620  0.72950  1.0000
  N   N3        1.0  0.16460  0.81060  0.29320  1.0000
  N   N4        1.0  0.83540  0.18940  0.70680  1.0000
  O   O1        1.0  0.02760  0.74470  0.15650  1.0000
  O   O2        1.0  0.97240  0.25530  0.84350  1.0000
  O   O3        1.0  0.85580  0.76240  0.14740  1.0000
  O   O4        1.0  0.14420  0.23760  0.85260  1.0000
  O   O5        1.0  0.77710  0.92090  0.40380  1.0000
  O   O6        1.0  0.22290  0.07910  0.59620  1.0000
  O   O7        1.0  0.95020  0.90460  0.41120  1.0000
  O   O8        1.0  0.04980  0.09540  0.58880  1.0000
  O   O9        1.0  0.97460  0.69820  0.36430  1.0000
  O   O10       1.0  0.02540  0.30180  0.63570  1.0000
  O   O11       1.0  0.80350  0.71370  0.35550  1.0000
  O   O12       1.0  0.19650  0.28630  0.64450  1.0000
  O   O13       1.0  0.99930  0.95420  0.20270  1.0000
  O   O14       1.0  0.00070  0.04580  0.79730  1.0000
  O   O15       1.0  0.82510  0.97140  0.19670  1.0000
  O   O16       1.0  0.17490  0.02860  0.80330  1.0000
  Rh  Rh1       1.0  0.99424  0.82481  0.28373  1.0000
  Rh  Rh2       1.0  0.00576  0.17519  0.71627  1.0000
  Rh  Rh3       1.0  0.80966  0.84271  0.27520  1.0000
  Rh  Rh4       1.0  0.19034  0.15729  0.72480  1.0000
