data_image0
_chemical_formula_structural       Cu3O12N3C12H3C3H3C3H3C3H3C3
_chemical_formula_sum              "Cu3 O12 N3 C24 H12"
_cell_length_a       9.6625
_cell_length_b       9.6625
_cell_length_c       13.9393
_cell_angle_alpha    90
_cell_angle_beta     90
_cell_angle_gamma    120

_space_group_name_H-M_alt    "P 1"
_space_group_IT_number       1

loop_
  _space_group_symop_operation_xyz
  'x, y, z'

loop_
  _atom_site_type_symbol
  _atom_site_label
  _atom_site_symmetry_multiplicity
  _atom_site_fract_x
  _atom_site_fract_y
  _atom_site_fract_z
  _atom_site_occupancy
  Cu  Cu1       1.0  0.84074  0.85276  0.51451  1.0000
  Cu  Cu2       1.0  0.14724  0.98798  0.18118  1.0000
  Cu  Cu3       1.0  0.01202  0.15926  0.84784  1.0000
  O   O1        1.0  0.01864  0.91387  0.60648  1.0000
  O   O2        1.0  0.08613  0.10477  0.27315  1.0000
  O   O3        1.0  0.89523  0.98136  0.93981  1.0000
  O   O4        1.0  0.10077  0.03931  0.74744  1.0000
  O   O5        1.0  0.96069  0.06146  0.41411  1.0000
  O   O6        1.0  0.93854  0.89923  0.08077  1.0000
  O   O7        1.0  0.83668  0.07670  0.75408  1.0000
  O   O8        1.0  0.92330  0.75998  0.42075  1.0000
  O   O9        1.0  0.24002  0.16332  0.08741  1.0000
  O   O10       1.0  0.62545  0.76474  0.45905  1.0000
  O   O11       1.0  0.23526  0.86071  0.12572  1.0000
  O   O12       1.0  0.13929  0.37455  0.79238  1.0000
  N   N1        1.0  0.75799  0.92931  0.61297  1.0000
  N   N2        1.0  0.07069  0.82868  0.27964  1.0000
  N   N3        1.0  0.17132  0.24201  0.94630  1.0000
  C   C1        1.0  0.00520  0.98470  0.67960  1.0000
  C   C2        1.0  0.01530  0.02050  0.34627  1.0000
  C   C3        1.0  0.97950  0.99480  0.01293  1.0000
  C   C4        1.0  0.85427  0.00102  0.68490  1.0000
  C   C5        1.0  0.99898  0.85325  0.35157  1.0000
  C   C6        1.0  0.14675  0.14573  0.01823  1.0000
  C   C7        1.0  0.60971  0.91380  0.59064  1.0000
  C   C8        1.0  0.08620  0.69591  0.25731  1.0000
  C   C9        1.0  0.30409  0.39029  0.92397  1.0000
  C   C10       1.0  0.52800  0.97490  0.64132  1.0000
  C   C11       1.0  0.02510  0.55310  0.30799  1.0000
  C   C12       1.0  0.44690  0.47200  0.97465  1.0000
  H   H1        1.0  0.57233  0.03339  0.69878  1.0000
  H   H2        1.0  0.96661  0.53894  0.36545  1.0000
  H   H3        1.0  0.46106  0.42767  0.03211  1.0000
  C   C13       1.0  0.38130  0.95050  0.60806  1.0000
  C   C14       1.0  0.04950  0.43080  0.27473  1.0000
  C   C15       1.0  0.56920  0.61870  0.94139  1.0000
  H   H4        1.0  0.32584  0.99281  0.64236  1.0000
  H   H5        1.0  0.00719  0.33303  0.30903  1.0000
  H   H6        1.0  0.66697  0.67416  0.97569  1.0000
  C   C16       1.0  0.31690  0.86350  0.52410  1.0000
  C   C17       1.0  0.13650  0.45340  0.19077  1.0000
  C   C18       1.0  0.54660  0.68310  0.85743  1.0000
  H   H7        1.0  0.21685  0.84648  0.50143  1.0000
  H   H8        1.0  0.15352  0.37037  0.16810  1.0000
  H   H9        1.0  0.62963  0.78315  0.83476  1.0000
  C   C19       1.0  0.39730  0.80110  0.47283  1.0000
  C   C20       1.0  0.19890  0.59620  0.13950  1.0000
  C   C21       1.0  0.40380  0.60270  0.80616  1.0000
  H   H10       1.0  0.35212  0.74281  0.41541  1.0000
  H   H11       1.0  0.25719  0.60931  0.08208  1.0000
  H   H12       1.0  0.39069  0.64788  0.74874  1.0000
  C   C22       1.0  0.54410  0.82380  0.50548  1.0000
  C   C23       1.0  0.17620  0.72030  0.17215  1.0000
  C   C24       1.0  0.27970  0.45590  0.83881  1.0000
