data_image0
_chemical_formula_structural       Ag16Mo72Ag4Mo24P8S32O256N8O16N8O32N8O8N8O8N32C32H8C24H8C16H8C8H8C24H8C8H8C8H8C16H8C16H8C16H8C8H8C8H8C16H8C8H8C8H8C8H8
_chemical_formula_sum              "Ag20 Mo96 P8 S32 O320 N64 C224 H128"
_cell_length_a       22.563
_cell_length_b       25.768
_cell_length_c       27.347
_cell_angle_alpha    90
_cell_angle_beta     91.734
_cell_angle_gamma    90

_space_group_name_H-M_alt    "P 1"
_space_group_IT_number       1

loop_
  _space_group_symop_operation_xyz
  'x, y, z'

loop_
  _atom_site_type_symbol
  _atom_site_label
  _atom_site_symmetry_multiplicity
  _atom_site_fract_x
  _atom_site_fract_y
  _atom_site_fract_z
  _atom_site_occupancy
  Ag  Ag1       1.0  0.95594  0.24646  0.46951  1.0000
  Ag  Ag2       1.0  0.04406  0.24646  0.03049  1.0000
  Ag  Ag3       1.0  0.45594  0.74646  0.46951  1.0000
  Ag  Ag4       1.0  0.54406  0.74646  0.03049  1.0000
  Ag  Ag5       1.0  0.04406  0.75354  0.53049  1.0000
  Ag  Ag6       1.0  0.95594  0.75354  0.96951  1.0000
  Ag  Ag7       1.0  0.54406  0.25354  0.53049  1.0000
  Ag  Ag8       1.0  0.45594  0.25354  0.96951  1.0000
  Ag  Ag9       1.0  0.05031  0.15384  0.53136  1.0000
  Ag  Ag10      1.0  0.94969  0.15384  0.96864  1.0000
  Ag  Ag11      1.0  0.55031  0.65384  0.53136  1.0000
  Ag  Ag12      1.0  0.44969  0.65384  0.96864  1.0000
  Ag  Ag13      1.0  0.94969  0.84616  0.46864  1.0000
  Ag  Ag14      1.0  0.05031  0.84616  0.03136  1.0000
  Ag  Ag15      1.0  0.44969  0.34616  0.46864  1.0000
  Ag  Ag16      1.0  0.55031  0.34616  0.03136  1.0000
  Mo  Mo1       1.0  0.09725  0.85571  0.30282  1.0000
  Mo  Mo2       1.0  0.90275  0.85571  0.19718  1.0000
  Mo  Mo3       1.0  0.59725  0.35571  0.30282  1.0000
  Mo  Mo4       1.0  0.40275  0.35571  0.19718  1.0000
  Mo  Mo5       1.0  0.90275  0.14429  0.69718  1.0000
  Mo  Mo6       1.0  0.09725  0.14429  0.80282  1.0000
  Mo  Mo7       1.0  0.40275  0.64429  0.69718  1.0000
  Mo  Mo8       1.0  0.59725  0.64429  0.80282  1.0000
  Mo  Mo9       1.0  0.09813  0.05792  0.29460  1.0000
  Mo  Mo10      1.0  0.90187  0.05792  0.20540  1.0000
  Mo  Mo11      1.0  0.59813  0.55792  0.29460  1.0000
  Mo  Mo12      1.0  0.40187  0.55792  0.20540  1.0000
  Mo  Mo13      1.0  0.90187  0.94208  0.70540  1.0000
  Mo  Mo14      1.0  0.09813  0.94208  0.79460  1.0000
  Mo  Mo15      1.0  0.40187  0.44208  0.70540  1.0000
  Mo  Mo16      1.0  0.59813  0.44208  0.79460  1.0000
  Mo  Mo17      1.0  0.05932  0.05813  0.17303  1.0000
  Mo  Mo18      1.0  0.94068  0.05813  0.32697  1.0000
  Mo  Mo19      1.0  0.55932  0.55813  0.17303  1.0000
  Mo  Mo20      1.0  0.44068  0.55813  0.32697  1.0000
  Mo  Mo21      1.0  0.94068  0.94187  0.82697  1.0000
  Mo  Mo22      1.0  0.05932  0.94187  0.67303  1.0000
  Mo  Mo23      1.0  0.44068  0.44187  0.82697  1.0000
  Mo  Mo24      1.0  0.55932  0.44187  0.67303  1.0000
  Mo  Mo25      1.0  0.90386  0.25194  0.19832  1.0000
  Mo  Mo26      1.0  0.09614  0.25194  0.30168  1.0000
  Mo  Mo27      1.0  0.40386  0.75194  0.19832  1.0000
  Mo  Mo28      1.0  0.59614  0.75194  0.30168  1.0000
  Mo  Mo29      1.0  0.09614  0.74806  0.80168  1.0000
  Mo  Mo30      1.0  0.90386  0.74806  0.69832  1.0000
  Mo  Mo31      1.0  0.59614  0.24806  0.80168  1.0000
  Mo  Mo32      1.0  0.40386  0.24806  0.69832  1.0000
  Mo  Mo33      1.0  0.09385  0.66765  0.30811  1.0000
  Mo  Mo34      1.0  0.90615  0.66765  0.19189  1.0000
  Mo  Mo35      1.0  0.59385  0.16765  0.30811  1.0000
  Mo  Mo36      1.0  0.40615  0.16765  0.19189  1.0000
  Mo  Mo37      1.0  0.90615  0.33235  0.69189  1.0000
  Mo  Mo38      1.0  0.09385  0.33235  0.80811  1.0000
  Mo  Mo39      1.0  0.40615  0.83235  0.69189  1.0000
  Mo  Mo40      1.0  0.59385  0.83235  0.80811  1.0000
  Mo  Mo41      1.0  0.15113  0.15127  0.21983  1.0000
  Mo  Mo42      1.0  0.84887  0.15127  0.28017  1.0000
  Mo  Mo43      1.0  0.65113  0.65127  0.21983  1.0000
  Mo  Mo44      1.0  0.34887  0.65127  0.28017  1.0000
  Mo  Mo45      1.0  0.84887  0.84873  0.78017  1.0000
  Mo  Mo46      1.0  0.15113  0.84873  0.71983  1.0000
  Mo  Mo47      1.0  0.34887  0.34873  0.78017  1.0000
  Mo  Mo48      1.0  0.65113  0.34873  0.71983  1.0000
  Mo  Mo49      1.0  0.15303  0.76406  0.22531  1.0000
  Mo  Mo50      1.0  0.84697  0.76406  0.27469  1.0000
  Mo  Mo51      1.0  0.65303  0.26406  0.22531  1.0000
  Mo  Mo52      1.0  0.34697  0.26406  0.27469  1.0000
  Mo  Mo53      1.0  0.84697  0.23594  0.77469  1.0000
  Mo  Mo54      1.0  0.15303  0.23594  0.72531  1.0000
  Mo  Mo55      1.0  0.34697  0.73594  0.77469  1.0000
  Mo  Mo56      1.0  0.65303  0.73594  0.72531  1.0000
  Mo  Mo57      1.0  0.94411  0.66006  0.32372  1.0000
  Mo  Mo58      1.0  0.05589  0.66006  0.17628  1.0000
  Mo  Mo59      1.0  0.44411  0.16006  0.32372  1.0000
  Mo  Mo60      1.0  0.55589  0.16006  0.17628  1.0000
  Mo  Mo61      1.0  0.05589  0.33994  0.67628  1.0000
  Mo  Mo62      1.0  0.94411  0.33994  0.82372  1.0000
  Mo  Mo63      1.0  0.55589  0.83994  0.67628  1.0000
  Mo  Mo64      1.0  0.44411  0.83994  0.82372  1.0000
  Mo  Mo65      1.0  0.05023  0.25205  0.17162  1.0000
  Mo  Mo66      1.0  0.94977  0.25205  0.32838  1.0000
  Mo  Mo67      1.0  0.55023  0.75205  0.17162  1.0000
  Mo  Mo68      1.0  0.44977  0.75205  0.32838  1.0000
  Mo  Mo69      1.0  0.94977  0.74795  0.82838  1.0000
  Mo  Mo70      1.0  0.05023  0.74795  0.67162  1.0000
  Mo  Mo71      1.0  0.44977  0.24795  0.82838  1.0000
  Mo  Mo72      1.0  0.55023  0.24795  0.67162  1.0000
  Ag  Ag17      1.0  0.00000  0.95824  0.25000  1.0000
  Ag  Ag18      1.0  0.50000  0.45824  0.25000  1.0000
  Ag  Ag19      1.0  0.00000  0.04176  0.75000  1.0000
  Ag  Ag20      1.0  0.50000  0.54176  0.75000  1.0000
  Mo  Mo73      1.0  0.06383  0.86068  0.18016  1.0000
  Mo  Mo74      1.0  0.93617  0.86068  0.31984  1.0000
  Mo  Mo75      1.0  0.56383  0.36068  0.18016  1.0000
  Mo  Mo76      1.0  0.43617  0.36068  0.31984  1.0000
  Mo  Mo77      1.0  0.93617  0.13932  0.81984  1.0000
  Mo  Mo78      1.0  0.06383  0.13932  0.68016  1.0000
  Mo  Mo79      1.0  0.43617  0.63932  0.81984  1.0000
  Mo  Mo80      1.0  0.56383  0.63932  0.68016  1.0000
  Mo  Mo81      1.0  0.04192  0.15906  0.37503  1.0000
  Mo  Mo82      1.0  0.95808  0.15906  0.12497  1.0000
  Mo  Mo83      1.0  0.54192  0.65906  0.37503  1.0000
  Mo  Mo84      1.0  0.45808  0.65906  0.12497  1.0000
  Mo  Mo85      1.0  0.95808  0.84094  0.62497  1.0000
  Mo  Mo86      1.0  0.04192  0.84094  0.87503  1.0000
  Mo  Mo87      1.0  0.45808  0.34094  0.62497  1.0000
  Mo  Mo88      1.0  0.54192  0.34094  0.87503  1.0000
  Mo  Mo89      1.0  0.02475  0.75761  0.37621  1.0000
  Mo  Mo90      1.0  0.97525  0.75761  0.12379  1.0000
  Mo  Mo91      1.0  0.52475  0.25761  0.37621  1.0000
  Mo  Mo92      1.0  0.47525  0.25761  0.12379  1.0000
  Mo  Mo93      1.0  0.97525  0.24239  0.62379  1.0000
  Mo  Mo94      1.0  0.02475  0.24239  0.87621  1.0000
  Mo  Mo95      1.0  0.47525  0.74239  0.62379  1.0000
  Mo  Mo96      1.0  0.52475  0.74239  0.87621  1.0000
  P   P1        1.0  0.00000  0.15406  0.25000  1.0000
  P   P2        1.0  0.50000  0.65406  0.25000  1.0000
  P   P3        1.0  0.00000  0.84594  0.75000  1.0000
  P   P4        1.0  0.50000  0.34594  0.75000  1.0000
  P   P5        1.0  0.00000  0.76200  0.25000  1.0000
  P   P6        1.0  0.50000  0.26200  0.25000  1.0000
  P   P7        1.0  0.00000  0.23800  0.75000  1.0000
  P   P8        1.0  0.50000  0.73800  0.75000  1.0000
  S   S1        1.0  0.34295  0.43564  0.47180  1.0000
  S   S2        1.0  0.65705  0.43564  0.02820  1.0000
  S   S3        1.0  0.84295  0.93564  0.47180  1.0000
  S   S4        1.0  0.15705  0.93564  0.02820  1.0000
  S   S5        1.0  0.65705  0.56436  0.52820  1.0000
  S   S6        1.0  0.34295  0.56436  0.97180  1.0000
  S   S7        1.0  0.15705  0.06436  0.52820  1.0000
  S   S8        1.0  0.84295  0.06436  0.97180  1.0000
  S   S9        1.0  0.66423  0.96259  0.53259  1.0000
  S   S10       1.0  0.33577  0.96259  0.96741  1.0000
  S   S11       1.0  0.16423  0.46259  0.53259  1.0000
  S   S12       1.0  0.83577  0.46259  0.96741  1.0000
  S   S13       1.0  0.33577  0.03741  0.46741  1.0000
  S   S14       1.0  0.66423  0.03741  0.03259  1.0000
  S   S15       1.0  0.83577  0.53741  0.46741  1.0000
  S   S16       1.0  0.16423  0.53741  0.03259  1.0000
  S   S17       1.0  0.26960  0.36292  0.58843  1.0000
  S   S18       1.0  0.73040  0.36292  0.91157  1.0000
  S   S19       1.0  0.76960  0.86292  0.58843  1.0000
  S   S20       1.0  0.23040  0.86292  0.91157  1.0000
  S   S21       1.0  0.73040  0.63708  0.41157  1.0000
  S   S22       1.0  0.26960  0.63708  0.08843  1.0000
  S   S23       1.0  0.23040  0.13708  0.41157  1.0000
  S   S24       1.0  0.76960  0.13708  0.08843  1.0000
  S   S25       1.0  0.73790  0.03811  0.41792  1.0000
  S   S26       1.0  0.26210  0.03811  0.08208  1.0000
  S   S27       1.0  0.23790  0.53811  0.41792  1.0000
  S   S28       1.0  0.76210  0.53811  0.08208  1.0000
  S   S29       1.0  0.26210  0.96189  0.58208  1.0000
  S   S30       1.0  0.73790  0.96189  0.91792  1.0000
  S   S31       1.0  0.76210  0.46189  0.58208  1.0000
  S   S32       1.0  0.23790  0.46189  0.91792  1.0000
  O   O1        1.0  0.01440  0.18860  0.29440  1.0000
  O   O2        1.0  0.98560  0.18860  0.20560  1.0000
  O   O3        1.0  0.51440  0.68860  0.29440  1.0000
  O   O4        1.0  0.48560  0.68860  0.20560  1.0000
  O   O5        1.0  0.98560  0.81140  0.70560  1.0000
  O   O6        1.0  0.01440  0.81140  0.79440  1.0000
  O   O7        1.0  0.48560  0.31140  0.70560  1.0000
  O   O8        1.0  0.51440  0.31140  0.79440  1.0000
  O   O9        1.0  0.05360  0.12010  0.23920  1.0000
  O   O10       1.0  0.94640  0.12010  0.26080  1.0000
  O   O11       1.0  0.55360  0.62010  0.23920  1.0000
  O   O12       1.0  0.44640  0.62010  0.26080  1.0000
  O   O13       1.0  0.94640  0.87990  0.76080  1.0000
  O   O14       1.0  0.05360  0.87990  0.73920  1.0000
  O   O15       1.0  0.44640  0.37990  0.76080  1.0000
  O   O16       1.0  0.55360  0.37990  0.73920  1.0000
  O   O17       1.0  0.01000  0.72770  0.29500  1.0000
  O   O18       1.0  0.99000  0.72770  0.20500  1.0000
  O   O19       1.0  0.51000  0.22770  0.29500  1.0000
  O   O20       1.0  0.49000  0.22770  0.20500  1.0000
  O   O21       1.0  0.99000  0.27230  0.70500  1.0000
  O   O22       1.0  0.01000  0.27230  0.79500  1.0000
  O   O23       1.0  0.49000  0.77230  0.70500  1.0000
  O   O24       1.0  0.51000  0.77230  0.79500  1.0000
  O   O25       1.0  0.08850  0.11100  0.34090  1.0000
  O   O26       1.0  0.91150  0.11100  0.15910  1.0000
  O   O27       1.0  0.58850  0.61100  0.34090  1.0000
  O   O28       1.0  0.41150  0.61100  0.15910  1.0000
  O   O29       1.0  0.91150  0.88900  0.65910  1.0000
  O   O30       1.0  0.08850  0.88900  0.84090  1.0000
  O   O31       1.0  0.41150  0.38900  0.65910  1.0000
  O   O32       1.0  0.58850  0.38900  0.84090  1.0000
  O   O33       1.0  0.08960  0.02340  0.23090  1.0000
  O   O34       1.0  0.91040  0.02340  0.26910  1.0000
  O   O35       1.0  0.58960  0.52340  0.23090  1.0000
  O   O36       1.0  0.41040  0.52340  0.26910  1.0000
  O   O37       1.0  0.91040  0.97660  0.76910  1.0000
  O   O38       1.0  0.08960  0.97660  0.73090  1.0000
  O   O39       1.0  0.41040  0.47660  0.76910  1.0000
  O   O40       1.0  0.58960  0.47660  0.73090  1.0000
  O   O41       1.0  0.09620  0.21360  0.36100  1.0000
  O   O42       1.0  0.90380  0.21360  0.13900  1.0000
  O   O43       1.0  0.59620  0.71360  0.36100  1.0000
  O   O44       1.0  0.40380  0.71360  0.13900  1.0000
  O   O45       1.0  0.90380  0.78640  0.63900  1.0000
  O   O46       1.0  0.09620  0.78640  0.86100  1.0000
  O   O47       1.0  0.40380  0.28640  0.63900  1.0000
  O   O48       1.0  0.59620  0.28640  0.86100  1.0000
  O   O49       1.0  0.07010  0.27070  0.23640  1.0000
  O   O50       1.0  0.92990  0.27070  0.26360  1.0000
  O   O51       1.0  0.57010  0.77070  0.23640  1.0000
  O   O52       1.0  0.42990  0.77070  0.26360  1.0000
  O   O53       1.0  0.92990  0.72930  0.76360  1.0000
  O   O54       1.0  0.07010  0.72930  0.73640  1.0000
  O   O55       1.0  0.42990  0.22930  0.76360  1.0000
  O   O56       1.0  0.57010  0.22930  0.73640  1.0000
  O   O57       1.0  0.13090  0.09720  0.17330  1.0000
  O   O58       1.0  0.86910  0.09720  0.32670  1.0000
  O   O59       1.0  0.63090  0.59720  0.17330  1.0000
  O   O60       1.0  0.36910  0.59720  0.32670  1.0000
  O   O61       1.0  0.86910  0.90280  0.82670  1.0000
  O   O62       1.0  0.13090  0.90280  0.67330  1.0000
  O   O63       1.0  0.36910  0.40280  0.82670  1.0000
  O   O64       1.0  0.63090  0.40280  0.67330  1.0000
  O   O65       1.0  0.16170  0.09730  0.26660  1.0000
  O   O66       1.0  0.83830  0.09730  0.23340  1.0000
  O   O67       1.0  0.66170  0.59730  0.26660  1.0000
  O   O68       1.0  0.33830  0.59730  0.23340  1.0000
  O   O69       1.0  0.83830  0.90270  0.73340  1.0000
  O   O70       1.0  0.16170  0.90270  0.76660  1.0000
  O   O71       1.0  0.33830  0.40270  0.73340  1.0000
  O   O72       1.0  0.66170  0.40270  0.76660  1.0000
  O   O73       1.0  0.85940  0.19920  0.22880  1.0000
  O   O74       1.0  0.14060  0.19920  0.27120  1.0000
  O   O75       1.0  0.35940  0.69920  0.22880  1.0000
  O   O76       1.0  0.64060  0.69920  0.27120  1.0000
  O   O77       1.0  0.14060  0.80080  0.77120  1.0000
  O   O78       1.0  0.85940  0.80080  0.72880  1.0000
  O   O79       1.0  0.64060  0.30080  0.77120  1.0000
  O   O80       1.0  0.35940  0.30080  0.72880  1.0000
  O   O81       1.0  0.09090  0.89310  0.23960  1.0000
  O   O82       1.0  0.90910  0.89310  0.26040  1.0000
  O   O83       1.0  0.59090  0.39310  0.23960  1.0000
  O   O84       1.0  0.40910  0.39310  0.26040  1.0000
  O   O85       1.0  0.90910  0.10690  0.76040  1.0000
  O   O86       1.0  0.09090  0.10690  0.73960  1.0000
  O   O87       1.0  0.40910  0.60690  0.76040  1.0000
  O   O88       1.0  0.59090  0.60690  0.73960  1.0000
  O   O89       1.0  0.98520  0.21260  0.38260  1.0000
  O   O90       1.0  0.01480  0.21260  0.11740  1.0000
  O   O91       1.0  0.48520  0.71260  0.38260  1.0000
  O   O92       1.0  0.51480  0.71260  0.11740  1.0000
  O   O93       1.0  0.01480  0.78740  0.61740  1.0000
  O   O94       1.0  0.98520  0.78740  0.88260  1.0000
  O   O95       1.0  0.51480  0.28740  0.61740  1.0000
  O   O96       1.0  0.48520  0.28740  0.88260  1.0000
  O   O97       1.0  0.97550  0.28510  0.17630  1.0000
  O   O98       1.0  0.02450  0.28510  0.32370  1.0000
  O   O99       1.0  0.47550  0.78510  0.17630  1.0000
  O   O100      1.0  0.52450  0.78510  0.32370  1.0000
  O   O101      1.0  0.02450  0.71490  0.82370  1.0000
  O   O102      1.0  0.97550  0.71490  0.67630  1.0000
  O   O103      1.0  0.52450  0.21490  0.82370  1.0000
  O   O104      1.0  0.47550  0.21490  0.67630  1.0000
  O   O105      1.0  0.07230  0.64520  0.24130  1.0000
  O   O106      1.0  0.92770  0.64520  0.25870  1.0000
  O   O107      1.0  0.57230  0.14520  0.24130  1.0000
  O   O108      1.0  0.42770  0.14520  0.25870  1.0000
  O   O109      1.0  0.92770  0.35480  0.75870  1.0000
  O   O110      1.0  0.07230  0.35480  0.74130  1.0000
  O   O111      1.0  0.42770  0.85480  0.75870  1.0000
  O   O112      1.0  0.57230  0.85480  0.74130  1.0000
  O   O113      1.0  0.05440  0.79600  0.24340  1.0000
  O   O114      1.0  0.94560  0.79600  0.25660  1.0000
  O   O115      1.0  0.55440  0.29600  0.24340  1.0000
  O   O116      1.0  0.44560  0.29600  0.25660  1.0000
  O   O117      1.0  0.94560  0.20400  0.75660  1.0000
  O   O118      1.0  0.05440  0.20400  0.74340  1.0000
  O   O119      1.0  0.44560  0.70400  0.75660  1.0000
  O   O120      1.0  0.55440  0.70400  0.74340  1.0000
  O   O121      1.0  0.07410  0.01370  0.13100  1.0000
  O   O122      1.0  0.92590  0.01370  0.36900  1.0000
  O   O123      1.0  0.57410  0.51370  0.13100  1.0000
  O   O124      1.0  0.42590  0.51370  0.36900  1.0000
  O   O125      1.0  0.92590  0.98630  0.86900  1.0000
  O   O126      1.0  0.07410  0.98630  0.63100  1.0000
  O   O127      1.0  0.42590  0.48630  0.86900  1.0000
  O   O128      1.0  0.57410  0.48630  0.63100  1.0000
  O   O129      1.0  0.16060  0.81890  0.27730  1.0000
  O   O130      1.0  0.83940  0.81890  0.22270  1.0000
  O   O131      1.0  0.66060  0.31890  0.27730  1.0000
  O   O132      1.0  0.33940  0.31890  0.22270  1.0000
  O   O133      1.0  0.83940  0.18110  0.72270  1.0000
  O   O134      1.0  0.16060  0.18110  0.77730  1.0000
  O   O135      1.0  0.33940  0.68110  0.72270  1.0000
  O   O136      1.0  0.66060  0.68110  0.77730  1.0000
  O   O137      1.0  0.97980  0.11040  0.36420  1.0000
  O   O138      1.0  0.02020  0.11040  0.13580  1.0000
  O   O139      1.0  0.47980  0.61040  0.36420  1.0000
  O   O140      1.0  0.52020  0.61040  0.13580  1.0000
  O   O141      1.0  0.02020  0.88960  0.63580  1.0000
  O   O142      1.0  0.97980  0.88960  0.86420  1.0000
  O   O143      1.0  0.52020  0.38960  0.63580  1.0000
  O   O144      1.0  0.47980  0.38960  0.86420  1.0000
  O   O145      1.0  0.08650  0.29590  0.13890  1.0000
  O   O146      1.0  0.91350  0.29590  0.36110  1.0000
  O   O147      1.0  0.58650  0.79590  0.13890  1.0000
  O   O148      1.0  0.41350  0.79590  0.36110  1.0000
  O   O149      1.0  0.91350  0.70410  0.86110  1.0000
  O   O150      1.0  0.08650  0.70410  0.63890  1.0000
  O   O151      1.0  0.41350  0.20410  0.86110  1.0000
  O   O152      1.0  0.58650  0.20410  0.63890  1.0000
  O   O153      1.0  0.08480  0.70520  0.36580  1.0000
  O   O154      1.0  0.91520  0.70520  0.13420  1.0000
  O   O155      1.0  0.58480  0.20520  0.36580  1.0000
  O   O156      1.0  0.41520  0.20520  0.13420  1.0000
  O   O157      1.0  0.91520  0.29480  0.63420  1.0000
  O   O158      1.0  0.08480  0.29480  0.86580  1.0000
  O   O159      1.0  0.41520  0.79480  0.63420  1.0000
  O   O160      1.0  0.58480  0.79480  0.86580  1.0000
  O   O161      1.0  0.98070  0.03840  0.19330  1.0000
  O   O162      1.0  0.01930  0.03840  0.30670  1.0000
  O   O163      1.0  0.48070  0.53840  0.19330  1.0000
  O   O164      1.0  0.51930  0.53840  0.30670  1.0000
  O   O165      1.0  0.01930  0.96160  0.80670  1.0000
  O   O166      1.0  0.98070  0.96160  0.69330  1.0000
  O   O167      1.0  0.51930  0.46160  0.80670  1.0000
  O   O168      1.0  0.48070  0.46160  0.69330  1.0000
  O   O169      1.0  0.11650  0.71610  0.18610  1.0000
  O   O170      1.0  0.88350  0.71610  0.31390  1.0000
  O   O171      1.0  0.61650  0.21610  0.18610  1.0000
  O   O172      1.0  0.38350  0.21610  0.31390  1.0000
  O   O173      1.0  0.88350  0.28390  0.81390  1.0000
  O   O174      1.0  0.11650  0.28390  0.68610  1.0000
  O   O175      1.0  0.38350  0.78390  0.81390  1.0000
  O   O176      1.0  0.61650  0.78390  0.68610  1.0000
  O   O177      1.0  0.13910  0.71840  0.27960  1.0000
  O   O178      1.0  0.86090  0.71840  0.22040  1.0000
  O   O179      1.0  0.63910  0.21840  0.27960  1.0000
  O   O180      1.0  0.36090  0.21840  0.22040  1.0000
  O   O181      1.0  0.86090  0.28160  0.72040  1.0000
  O   O182      1.0  0.13910  0.28160  0.77960  1.0000
  O   O183      1.0  0.36090  0.78160  0.72040  1.0000
  O   O184      1.0  0.63910  0.78160  0.77960  1.0000
  O   O185      1.0  0.08390  0.90360  0.14020  1.0000
  O   O186      1.0  0.91610  0.90360  0.35980  1.0000
  O   O187      1.0  0.58390  0.40360  0.14020  1.0000
  O   O188      1.0  0.41610  0.40360  0.35980  1.0000
  O   O189      1.0  0.91610  0.09640  0.85980  1.0000
  O   O190      1.0  0.08390  0.09640  0.64020  1.0000
  O   O191      1.0  0.41610  0.59640  0.85980  1.0000
  O   O192      1.0  0.58390  0.59640  0.64020  1.0000
  O   O193      1.0  0.13690  0.81960  0.18300  1.0000
  O   O194      1.0  0.86310  0.81960  0.31700  1.0000
  O   O195      1.0  0.63690  0.31960  0.18300  1.0000
  O   O196      1.0  0.36310  0.31960  0.31700  1.0000
  O   O197      1.0  0.86310  0.18040  0.81700  1.0000
  O   O198      1.0  0.13690  0.18040  0.68300  1.0000
  O   O199      1.0  0.36310  0.68040  0.81700  1.0000
  O   O200      1.0  0.63690  0.68040  0.68300  1.0000
  O   O201      1.0  0.02000  0.63130  0.32490  1.0000
  O   O202      1.0  0.98000  0.63130  0.17510  1.0000
  O   O203      1.0  0.52000  0.13130  0.32490  1.0000
  O   O204      1.0  0.48000  0.13130  0.17510  1.0000
  O   O205      1.0  0.98000  0.36870  0.67510  1.0000
  O   O206      1.0  0.02000  0.36870  0.82490  1.0000
  O   O207      1.0  0.48000  0.86870  0.67510  1.0000
  O   O208      1.0  0.52000  0.86870  0.82490  1.0000
  O   O209      1.0  0.96990  0.70360  0.37820  1.0000
  O   O210      1.0  0.03010  0.70360  0.12180  1.0000
  O   O211      1.0  0.46990  0.20360  0.37820  1.0000
  O   O212      1.0  0.53010  0.20360  0.12180  1.0000
  O   O213      1.0  0.03010  0.29640  0.62180  1.0000
  O   O214      1.0  0.96990  0.29640  0.87820  1.0000
  O   O215      1.0  0.53010  0.79640  0.62180  1.0000
  O   O216      1.0  0.46990  0.79640  0.87820  1.0000
  O   O217      1.0  0.08020  0.80590  0.34840  1.0000
  O   O218      1.0  0.91980  0.80590  0.15160  1.0000
  O   O219      1.0  0.58020  0.30590  0.34840  1.0000
  O   O220      1.0  0.41980  0.30590  0.15160  1.0000
  O   O221      1.0  0.91980  0.19410  0.65160  1.0000
  O   O222      1.0  0.08020  0.19410  0.84840  1.0000
  O   O223      1.0  0.41980  0.69410  0.65160  1.0000
  O   O224      1.0  0.58020  0.69410  0.84840  1.0000
  O   O225      1.0  0.13790  0.01310  0.32450  1.0000
  O   O226      1.0  0.86210  0.01310  0.17550  1.0000
  O   O227      1.0  0.63790  0.51310  0.32450  1.0000
  O   O228      1.0  0.36210  0.51310  0.17550  1.0000
  O   O229      1.0  0.86210  0.98690  0.67550  1.0000
  O   O230      1.0  0.13790  0.98690  0.82450  1.0000
  O   O231      1.0  0.36210  0.48690  0.67550  1.0000
  O   O232      1.0  0.63790  0.48690  0.82450  1.0000
  O   O233      1.0  0.03590  0.76680  0.43540  1.0000
  O   O234      1.0  0.96410  0.76680  0.06460  1.0000
  O   O235      1.0  0.53590  0.26680  0.43540  1.0000
  O   O236      1.0  0.46410  0.26680  0.06460  1.0000
  O   O237      1.0  0.96410  0.23320  0.56460  1.0000
  O   O238      1.0  0.03590  0.23320  0.93540  1.0000
  O   O239      1.0  0.46410  0.73320  0.56460  1.0000
  O   O240      1.0  0.53590  0.73320  0.93540  1.0000
  O   O241      1.0  0.10810  0.19860  0.17980  1.0000
  O   O242      1.0  0.89190  0.19860  0.32020  1.0000
  O   O243      1.0  0.60810  0.69860  0.17980  1.0000
  O   O244      1.0  0.39190  0.69860  0.32020  1.0000
  O   O245      1.0  0.89190  0.80140  0.82020  1.0000
  O   O246      1.0  0.10810  0.80140  0.67980  1.0000
  O   O247      1.0  0.39190  0.30140  0.82020  1.0000
  O   O248      1.0  0.60810  0.30140  0.67980  1.0000
  O   O249      1.0  0.14330  0.62280  0.32590  1.0000
  O   O250      1.0  0.85670  0.62280  0.17410  1.0000
  O   O251      1.0  0.64330  0.12280  0.32590  1.0000
  O   O252      1.0  0.35670  0.12280  0.17410  1.0000
  O   O253      1.0  0.85670  0.37720  0.67410  1.0000
  O   O254      1.0  0.14330  0.37720  0.82590  1.0000
  O   O255      1.0  0.35670  0.87720  0.67410  1.0000
  O   O256      1.0  0.64330  0.87720  0.82590  1.0000
  N   N1        1.0  0.51990  0.80960  0.47130  1.0000
  N   N2        1.0  0.48010  0.80960  0.02870  1.0000
  N   N3        1.0  0.01990  0.30960  0.47130  1.0000
  N   N4        1.0  0.98010  0.30960  0.02870  1.0000
  N   N5        1.0  0.48010  0.19040  0.52870  1.0000
  N   N6        1.0  0.51990  0.19040  0.97130  1.0000
  N   N7        1.0  0.98010  0.69040  0.52870  1.0000
  N   N8        1.0  0.01990  0.69040  0.97130  1.0000
  O   O257      1.0  0.01510  0.87870  0.30840  1.0000
  O   O258      1.0  0.98490  0.87870  0.19160  1.0000
  O   O259      1.0  0.51510  0.37870  0.30840  1.0000
  O   O260      1.0  0.48490  0.37870  0.19160  1.0000
  O   O261      1.0  0.98490  0.12130  0.69160  1.0000
  O   O262      1.0  0.01510  0.12130  0.80840  1.0000
  O   O263      1.0  0.48490  0.62130  0.69160  1.0000
  O   O264      1.0  0.51510  0.62130  0.80840  1.0000
  O   O265      1.0  0.05970  0.14820  0.43330  1.0000
  O   O266      1.0  0.94030  0.14820  0.06670  1.0000
  O   O267      1.0  0.55970  0.64820  0.43330  1.0000
  O   O268      1.0  0.44030  0.64820  0.06670  1.0000
  O   O269      1.0  0.94030  0.85180  0.56670  1.0000
  O   O270      1.0  0.05970  0.85180  0.93330  1.0000
  O   O271      1.0  0.44030  0.35180  0.56670  1.0000
  O   O272      1.0  0.55970  0.35180  0.93330  1.0000
  N   N9        1.0  0.11550  0.21440  0.53050  1.0000
  N   N10       1.0  0.88450  0.21440  0.96950  1.0000
  N   N11       1.0  0.61550  0.71440  0.53050  1.0000
  N   N12       1.0  0.38450  0.71440  0.96950  1.0000
  N   N13       1.0  0.88450  0.78560  0.46950  1.0000
  N   N14       1.0  0.11550  0.78560  0.03050  1.0000
  N   N15       1.0  0.38450  0.28560  0.46950  1.0000
  N   N16       1.0  0.61550  0.28560  0.03050  1.0000
  O   O273      1.0  0.85350  0.29710  0.18440  1.0000
  O   O274      1.0  0.14650  0.29710  0.31560  1.0000
  O   O275      1.0  0.35350  0.79710  0.18440  1.0000
  O   O276      1.0  0.64650  0.79710  0.31560  1.0000
  O   O277      1.0  0.14650  0.70290  0.81560  1.0000
  O   O278      1.0  0.85350  0.70290  0.68440  1.0000
  O   O279      1.0  0.64650  0.20290  0.81560  1.0000
  O   O280      1.0  0.35350  0.20290  0.68440  1.0000
  O   O281      1.0  0.90510  0.61600  0.35400  1.0000
  O   O282      1.0  0.09490  0.61600  0.14600  1.0000
  O   O283      1.0  0.40510  0.11600  0.35400  1.0000
  O   O284      1.0  0.59490  0.11600  0.14600  1.0000
  O   O285      1.0  0.09490  0.38400  0.64600  1.0000
  O   O286      1.0  0.90510  0.38400  0.85400  1.0000
  O   O287      1.0  0.59490  0.88400  0.64600  1.0000
  O   O288      1.0  0.40510  0.88400  0.85400  1.0000
  O   O289      1.0  0.22510  0.75510  0.21650  1.0000
  O   O290      1.0  0.77490  0.75510  0.28350  1.0000
  O   O291      1.0  0.72510  0.25510  0.21650  1.0000
  O   O292      1.0  0.27490  0.25510  0.28350  1.0000
  O   O293      1.0  0.77490  0.24490  0.78350  1.0000
  O   O294      1.0  0.22510  0.24490  0.71650  1.0000
  O   O295      1.0  0.27490  0.74490  0.78350  1.0000
  O   O296      1.0  0.72510  0.74490  0.71650  1.0000
  O   O297      1.0  0.96740  0.80760  0.36040  1.0000
  O   O298      1.0  0.03260  0.80760  0.13960  1.0000
  O   O299      1.0  0.46740  0.30760  0.36040  1.0000
  O   O300      1.0  0.53260  0.30760  0.13960  1.0000
  O   O301      1.0  0.03260  0.19240  0.63960  1.0000
  O   O302      1.0  0.96740  0.19240  0.86040  1.0000
  O   O303      1.0  0.53260  0.69240  0.63960  1.0000
  O   O304      1.0  0.46740  0.69240  0.86040  1.0000
  N   N17       1.0  0.74060  0.04560  0.51590  1.0000
  N   N18       1.0  0.25940  0.04560  0.98410  1.0000
  N   N19       1.0  0.24060  0.54560  0.51590  1.0000
  N   N20       1.0  0.75940  0.54560  0.98410  1.0000
  N   N21       1.0  0.25940  0.95440  0.48410  1.0000
  N   N22       1.0  0.74060  0.95440  0.01590  1.0000
  N   N23       1.0  0.75940  0.45440  0.48410  1.0000
  N   N24       1.0  0.24060  0.45440  0.01590  1.0000
  O   O305      1.0  0.13430  0.90060  0.33600  1.0000
  O   O306      1.0  0.86570  0.90060  0.16400  1.0000
  O   O307      1.0  0.63430  0.40060  0.33600  1.0000
  O   O308      1.0  0.36570  0.40060  0.16400  1.0000
  O   O309      1.0  0.86570  0.09940  0.66400  1.0000
  O   O310      1.0  0.13430  0.09940  0.83600  1.0000
  O   O311      1.0  0.36570  0.59940  0.66400  1.0000
  O   O312      1.0  0.63430  0.59940  0.83600  1.0000
  N   N25       1.0  0.26340  0.35600  0.49310  1.0000
  N   N26       1.0  0.73660  0.35600  0.00690  1.0000
  N   N27       1.0  0.76340  0.85600  0.49310  1.0000
  N   N28       1.0  0.23660  0.85600  0.00690  1.0000
  N   N29       1.0  0.73660  0.64400  0.50690  1.0000
  N   N30       1.0  0.26340  0.64400  0.99310  1.0000
  N   N31       1.0  0.23660  0.14400  0.50690  1.0000
  N   N32       1.0  0.76340  0.14400  0.99310  1.0000
  O   O313      1.0  0.22070  0.16240  0.20490  1.0000
  O   O314      1.0  0.77930  0.16240  0.29510  1.0000
  O   O315      1.0  0.72070  0.66240  0.20490  1.0000
  O   O316      1.0  0.27930  0.66240  0.29510  1.0000
  O   O317      1.0  0.77930  0.83760  0.79510  1.0000
  O   O318      1.0  0.22070  0.83760  0.70490  1.0000
  O   O319      1.0  0.27930  0.33760  0.79510  1.0000
  O   O320      1.0  0.72070  0.33760  0.70490  1.0000
  N   N33       1.0  0.88650  0.18860  0.47310  1.0000
  N   N34       1.0  0.11350  0.18860  0.02690  1.0000
  N   N35       1.0  0.38650  0.68860  0.47310  1.0000
  N   N36       1.0  0.61350  0.68860  0.02690  1.0000
  N   N37       1.0  0.11350  0.81140  0.52690  1.0000
  N   N38       1.0  0.88650  0.81140  0.97310  1.0000
  N   N39       1.0  0.61350  0.31140  0.52690  1.0000
  N   N40       1.0  0.38650  0.31140  0.97310  1.0000
  N   N41       1.0  0.34750  0.44490  0.56760  1.0000
  N   N42       1.0  0.65250  0.44490  0.93240  1.0000
  N   N43       1.0  0.84750  0.94490  0.56760  1.0000
  N   N44       1.0  0.15250  0.94490  0.93240  1.0000
  N   N45       1.0  0.65250  0.55510  0.43240  1.0000
  N   N46       1.0  0.34750  0.55510  0.06760  1.0000
  N   N47       1.0  0.15250  0.05510  0.43240  1.0000
  N   N48       1.0  0.84750  0.05510  0.06760  1.0000
  N   N49       1.0  0.48670  0.59150  0.52920  1.0000
  N   N50       1.0  0.51330  0.59150  0.97080  1.0000
  N   N51       1.0  0.98670  0.09150  0.52920  1.0000
  N   N52       1.0  0.01330  0.09150  0.97080  1.0000
  N   N53       1.0  0.51330  0.40850  0.47080  1.0000
  N   N54       1.0  0.48670  0.40850  0.02920  1.0000
  N   N55       1.0  0.01330  0.90850  0.47080  1.0000
  N   N56       1.0  0.98670  0.90850  0.02920  1.0000
  N   N57       1.0  0.66150  0.95520  0.43540  1.0000
  N   N58       1.0  0.33850  0.95520  0.06460  1.0000
  N   N59       1.0  0.16150  0.45520  0.43540  1.0000
  N   N60       1.0  0.83850  0.45520  0.06460  1.0000
  N   N61       1.0  0.33850  0.04480  0.56460  1.0000
  N   N62       1.0  0.66150  0.04480  0.93540  1.0000
  N   N63       1.0  0.83850  0.54480  0.56460  1.0000
  N   N64       1.0  0.16150  0.54480  0.93540  1.0000
  C   C1        1.0  0.59950  0.89080  0.47570  1.0000
  C   C2        1.0  0.40050  0.89080  0.02430  1.0000
  C   C3        1.0  0.09950  0.39080  0.47570  1.0000
  C   C4        1.0  0.90050  0.39080  0.02430  1.0000
  C   C5        1.0  0.40050  0.10920  0.52430  1.0000
  C   C6        1.0  0.59950  0.10920  0.97570  1.0000
  C   C7        1.0  0.90050  0.60920  0.52430  1.0000
  C   C8        1.0  0.09950  0.60920  0.97570  1.0000
  C   C9        1.0  0.24160  0.33610  0.53390  1.0000
  C   C10       1.0  0.75840  0.33610  0.96610  1.0000
  C   C11       1.0  0.74160  0.83610  0.53390  1.0000
  C   C12       1.0  0.25840  0.83610  0.96610  1.0000
  C   C13       1.0  0.75840  0.66390  0.46610  1.0000
  C   C14       1.0  0.24160  0.66390  0.03390  1.0000
  C   C15       1.0  0.25840  0.16390  0.46610  1.0000
  C   C16       1.0  0.74160  0.16390  0.03390  1.0000
  C   C17       1.0  0.40860  0.50870  0.52640  1.0000
  C   C18       1.0  0.59140  0.50870  0.97360  1.0000
  C   C19       1.0  0.90860  0.00870  0.52640  1.0000
  C   C20       1.0  0.09140  0.00870  0.97360  1.0000
  C   C21       1.0  0.59140  0.49130  0.47360  1.0000
  C   C22       1.0  0.40860  0.49130  0.02640  1.0000
  C   C23       1.0  0.09140  0.99130  0.47360  1.0000
  C   C24       1.0  0.90860  0.99130  0.02640  1.0000
  C   C25       1.0  0.46950  0.57080  0.48670  1.0000
  C   C26       1.0  0.53050  0.57080  0.01330  1.0000
  C   C27       1.0  0.96950  0.07080  0.48670  1.0000
  C   C28       1.0  0.03050  0.07080  0.01330  1.0000
  C   C29       1.0  0.53050  0.42920  0.51330  1.0000
  C   C30       1.0  0.46950  0.42920  0.98670  1.0000
  C   C31       1.0  0.03050  0.92920  0.51330  1.0000
  C   C32       1.0  0.96950  0.92920  0.98670  1.0000
  H   H1        1.0  0.48422  0.58412  0.45786  1.0000
  H   H2        1.0  0.51578  0.58412  0.04214  1.0000
  H   H3        1.0  0.98422  0.08412  0.45786  1.0000
  H   H4        1.0  0.01578  0.08412  0.04214  1.0000
  H   H5        1.0  0.51578  0.41588  0.54214  1.0000
  H   H6        1.0  0.48422  0.41588  0.95786  1.0000
  H   H7        1.0  0.01578  0.91588  0.54214  1.0000
  H   H8        1.0  0.98422  0.91588  0.95786  1.0000
  C   C33       1.0  0.64130  0.93480  0.47690  1.0000
  C   C34       1.0  0.35870  0.93480  0.02310  1.0000
  C   C35       1.0  0.14130  0.43480  0.47690  1.0000
  C   C36       1.0  0.85870  0.43480  0.02310  1.0000
  C   C37       1.0  0.35870  0.06520  0.52310  1.0000
  C   C38       1.0  0.64130  0.06520  0.97690  1.0000
  C   C39       1.0  0.85870  0.56520  0.52310  1.0000
  C   C40       1.0  0.14130  0.56520  0.97690  1.0000
  C   C41       1.0  0.19870  0.29340  0.53440  1.0000
  C   C42       1.0  0.80130  0.29340  0.96560  1.0000
  C   C43       1.0  0.69870  0.79340  0.53440  1.0000
  C   C44       1.0  0.30130  0.79340  0.96560  1.0000
  C   C45       1.0  0.80130  0.70660  0.46560  1.0000
  C   C46       1.0  0.19870  0.70660  0.03440  1.0000
  C   C47       1.0  0.30130  0.20660  0.46560  1.0000
  C   C48       1.0  0.69870  0.20660  0.03440  1.0000
  C   C49       1.0  0.53240  0.83130  0.51510  1.0000
  C   C50       1.0  0.46760  0.83130  0.98490  1.0000
  C   C51       1.0  0.03240  0.33130  0.51510  1.0000
  C   C52       1.0  0.96760  0.33130  0.98490  1.0000
  C   C53       1.0  0.46760  0.16870  0.48490  1.0000
  C   C54       1.0  0.53240  0.16870  0.01510  1.0000
  C   C55       1.0  0.96760  0.66870  0.48490  1.0000
  C   C56       1.0  0.03240  0.66870  0.01510  1.0000
  H   H9        1.0  0.51332  0.82033  0.54294  1.0000
  H   H10       1.0  0.48668  0.82033  0.95706  1.0000
  H   H11       1.0  0.01332  0.32033  0.54294  1.0000
  H   H12       1.0  0.98668  0.32033  0.95706  1.0000
  H   H13       1.0  0.48668  0.17967  0.45706  1.0000
  H   H14       1.0  0.51332  0.17967  0.04294  1.0000
  H   H15       1.0  0.98668  0.67967  0.45706  1.0000
  H   H16       1.0  0.01332  0.67967  0.04294  1.0000
  C   C57       1.0  0.70440  0.00520  0.50050  1.0000
  C   C58       1.0  0.29560  0.00520  0.99950  1.0000
  C   C59       1.0  0.20440  0.50520  0.50050  1.0000
  C   C60       1.0  0.79560  0.50520  0.99950  1.0000
  C   C61       1.0  0.29560  0.99480  0.49950  1.0000
  C   C62       1.0  0.70440  0.99480  0.00050  1.0000
  C   C63       1.0  0.79560  0.49480  0.49950  1.0000
  C   C64       1.0  0.20440  0.49480  0.00050  1.0000
  C   C65       1.0  0.57530  0.87110  0.51790  1.0000
  C   C66       1.0  0.42470  0.87110  0.98210  1.0000
  C   C67       1.0  0.07530  0.37110  0.51790  1.0000
  C   C68       1.0  0.92470  0.37110  0.98210  1.0000
  C   C69       1.0  0.42470  0.12890  0.48210  1.0000
  C   C70       1.0  0.57530  0.12890  0.01790  1.0000
  C   C71       1.0  0.92470  0.62890  0.48210  1.0000
  C   C72       1.0  0.07530  0.62890  0.01790  1.0000
  H   H17       1.0  0.58739  0.88425  0.54825  1.0000
  H   H18       1.0  0.41261  0.88425  0.95175  1.0000
  H   H19       1.0  0.08739  0.38425  0.54825  1.0000
  H   H20       1.0  0.91261  0.38425  0.95175  1.0000
  H   H21       1.0  0.41261  0.11575  0.45175  1.0000
  H   H22       1.0  0.58739  0.11575  0.04825  1.0000
  H   H23       1.0  0.91261  0.61575  0.45175  1.0000
  H   H24       1.0  0.08739  0.61575  0.04825  1.0000
  C   C73       1.0  0.54320  0.82710  0.43110  1.0000
  C   C74       1.0  0.45680  0.82710  0.06890  1.0000
  C   C75       1.0  0.04320  0.32710  0.43110  1.0000
  C   C76       1.0  0.95680  0.32710  0.06890  1.0000
  C   C77       1.0  0.45680  0.17290  0.56890  1.0000
  C   C78       1.0  0.54320  0.17290  0.93110  1.0000
  C   C79       1.0  0.95680  0.67290  0.56890  1.0000
  C   C80       1.0  0.04320  0.67290  0.93110  1.0000
  H   H25       1.0  0.53122  0.81247  0.40136  1.0000
  H   H26       1.0  0.46878  0.81247  0.09864  1.0000
  H   H27       1.0  0.03122  0.31247  0.40136  1.0000
  H   H28       1.0  0.96878  0.31247  0.09864  1.0000
  H   H29       1.0  0.46878  0.18753  0.59864  1.0000
  H   H30       1.0  0.53122  0.18753  0.90136  1.0000
  H   H31       1.0  0.96878  0.68753  0.59864  1.0000
  H   H32       1.0  0.03122  0.68753  0.90136  1.0000
  C   C81       1.0  0.36740  0.46470  0.52670  1.0000
  C   C82       1.0  0.63260  0.46470  0.97330  1.0000
  C   C83       1.0  0.86740  0.96470  0.52670  1.0000
  C   C84       1.0  0.13260  0.96470  0.97330  1.0000
  C   C85       1.0  0.63260  0.53530  0.47330  1.0000
  C   C86       1.0  0.36740  0.53530  0.02670  1.0000
  C   C87       1.0  0.13260  0.03530  0.47330  1.0000
  C   C88       1.0  0.86740  0.03530  0.02670  1.0000
  C   C89       1.0  0.80390  0.10930  0.47300  1.0000
  C   C90       1.0  0.19610  0.10930  0.02700  1.0000
  C   C91       1.0  0.30390  0.60930  0.47300  1.0000
  C   C92       1.0  0.69610  0.60930  0.02700  1.0000
  C   C93       1.0  0.19610  0.89070  0.52700  1.0000
  C   C94       1.0  0.80390  0.89070  0.97300  1.0000
  C   C95       1.0  0.69610  0.39070  0.52700  1.0000
  C   C96       1.0  0.30390  0.39070  0.97300  1.0000
  C   C97       1.0  0.58420  0.86580  0.43120  1.0000
  C   C98       1.0  0.41580  0.86580  0.06880  1.0000
  C   C99       1.0  0.08420  0.36580  0.43120  1.0000
  C   C100      1.0  0.91580  0.36580  0.06880  1.0000
  C   C101      1.0  0.41580  0.13420  0.56880  1.0000
  C   C102      1.0  0.58420  0.13420  0.93120  1.0000
  C   C103      1.0  0.91580  0.63420  0.56880  1.0000
  C   C104      1.0  0.08420  0.63420  0.93120  1.0000
  H   H33       1.0  0.60189  0.87567  0.40236  1.0000
  H   H34       1.0  0.39811  0.87567  0.09764  1.0000
  H   H35       1.0  0.10189  0.37567  0.40236  1.0000
  H   H36       1.0  0.89811  0.37567  0.09764  1.0000
  H   H37       1.0  0.39811  0.12433  0.59764  1.0000
  H   H38       1.0  0.60189  0.12433  0.90236  1.0000
  H   H39       1.0  0.89811  0.62433  0.59764  1.0000
  H   H40       1.0  0.10189  0.62433  0.90236  1.0000
  C   C105      1.0  0.42890  0.53000  0.57110  1.0000
  C   C106      1.0  0.57110  0.53000  0.92890  1.0000
  C   C107      1.0  0.92890  0.03000  0.57110  1.0000
  C   C108      1.0  0.07110  0.03000  0.92890  1.0000
  C   C109      1.0  0.57110  0.47000  0.42890  1.0000
  C   C110      1.0  0.42890  0.47000  0.07110  1.0000
  C   C111      1.0  0.07110  0.97000  0.42890  1.0000
  C   C112      1.0  0.92890  0.97000  0.07110  1.0000
  H   H41       1.0  0.41661  0.51615  0.60050  1.0000
  H   H42       1.0  0.58339  0.51615  0.89950  1.0000
  H   H43       1.0  0.91661  0.01615  0.60050  1.0000
  H   H44       1.0  0.08339  0.01615  0.89950  1.0000
  H   H45       1.0  0.58339  0.48385  0.39950  1.0000
  H   H46       1.0  0.41661  0.48385  0.10050  1.0000
  H   H47       1.0  0.08339  0.98385  0.39950  1.0000
  H   H48       1.0  0.91661  0.98385  0.10050  1.0000
  C   C113      1.0  0.43010  0.52990  0.48470  1.0000
  C   C114      1.0  0.56990  0.52990  0.01530  1.0000
  C   C115      1.0  0.93010  0.02990  0.48470  1.0000
  C   C116      1.0  0.06990  0.02990  0.01530  1.0000
  C   C117      1.0  0.56990  0.47010  0.51530  1.0000
  C   C118      1.0  0.43010  0.47010  0.98470  1.0000
  C   C119      1.0  0.06990  0.97010  0.51530  1.0000
  C   C120      1.0  0.93010  0.97010  0.98470  1.0000
  H   H49       1.0  0.41806  0.51640  0.45447  1.0000
  H   H50       1.0  0.58194  0.51640  0.04553  1.0000
  H   H51       1.0  0.91806  0.01640  0.45447  1.0000
  H   H52       1.0  0.08194  0.01640  0.04553  1.0000
  H   H53       1.0  0.58194  0.48360  0.54553  1.0000
  H   H54       1.0  0.41806  0.48360  0.95447  1.0000
  H   H55       1.0  0.08194  0.98360  0.54553  1.0000
  H   H56       1.0  0.91806  0.98360  0.95447  1.0000
  C   C121      1.0  0.69780  0.99570  0.45120  1.0000
  C   C122      1.0  0.30220  0.99570  0.04880  1.0000
  C   C123      1.0  0.19780  0.49570  0.45120  1.0000
  C   C124      1.0  0.80220  0.49570  0.04880  1.0000
  C   C125      1.0  0.30220  0.00430  0.54880  1.0000
  C   C126      1.0  0.69780  0.00430  0.95120  1.0000
  C   C127      1.0  0.80220  0.50430  0.54880  1.0000
  C   C128      1.0  0.19780  0.50430  0.95120  1.0000
  C   C129      1.0  0.46730  0.57190  0.57100  1.0000
  C   C130      1.0  0.53270  0.57190  0.92900  1.0000
  C   C131      1.0  0.96730  0.07190  0.57100  1.0000
  C   C132      1.0  0.03270  0.07190  0.92900  1.0000
  C   C133      1.0  0.53270  0.42810  0.42900  1.0000
  C   C134      1.0  0.46730  0.42810  0.07100  1.0000
  C   C135      1.0  0.03270  0.92810  0.42900  1.0000
  C   C136      1.0  0.96730  0.92810  0.07100  1.0000
  H   H57       1.0  0.47991  0.58660  0.60060  1.0000
  H   H58       1.0  0.52009  0.58660  0.89940  1.0000
  H   H59       1.0  0.97991  0.08660  0.60060  1.0000
  H   H60       1.0  0.02009  0.08660  0.89940  1.0000
  H   H61       1.0  0.52009  0.41340  0.39940  1.0000
  H   H62       1.0  0.47991  0.41340  0.10060  1.0000
  H   H63       1.0  0.02009  0.91340  0.39940  1.0000
  H   H64       1.0  0.97991  0.91340  0.10060  1.0000
  C   C137      1.0  0.30100  0.39540  0.50610  1.0000
  C   C138      1.0  0.69900  0.39540  0.99390  1.0000
  C   C139      1.0  0.80100  0.89540  0.50610  1.0000
  C   C140      1.0  0.19900  0.89540  0.99390  1.0000
  C   C141      1.0  0.69900  0.60460  0.49390  1.0000
  C   C142      1.0  0.30100  0.60460  0.00610  1.0000
  C   C143      1.0  0.19900  0.10460  0.49390  1.0000
  C   C144      1.0  0.80100  0.10460  0.00610  1.0000
  C   C145      1.0  0.13520  0.23510  0.49060  1.0000
  C   C146      1.0  0.86480  0.23510  0.00940  1.0000
  C   C147      1.0  0.63520  0.73510  0.49060  1.0000
  C   C148      1.0  0.36480  0.73510  0.00940  1.0000
  C   C149      1.0  0.86480  0.76490  0.50940  1.0000
  C   C150      1.0  0.13520  0.76490  0.99060  1.0000
  C   C151      1.0  0.36480  0.26490  0.50940  1.0000
  C   C152      1.0  0.63520  0.26490  0.99060  1.0000
  H   H65       1.0  0.11997  0.22257  0.46086  1.0000
  H   H66       1.0  0.88003  0.22257  0.03914  1.0000
  H   H67       1.0  0.61997  0.72257  0.46086  1.0000
  H   H68       1.0  0.38003  0.72257  0.03914  1.0000
  H   H69       1.0  0.88003  0.77743  0.53914  1.0000
  H   H70       1.0  0.11997  0.77743  0.96086  1.0000
  H   H71       1.0  0.38003  0.27743  0.53914  1.0000
  H   H72       1.0  0.61997  0.27743  0.96086  1.0000
  C   C153      1.0  0.76240  0.06580  0.47370  1.0000
  C   C154      1.0  0.23760  0.06580  0.02630  1.0000
  C   C155      1.0  0.26240  0.56580  0.47370  1.0000
  C   C156      1.0  0.73760  0.56580  0.02630  1.0000
  C   C157      1.0  0.23760  0.93420  0.52630  1.0000
  C   C158      1.0  0.76240  0.93420  0.97370  1.0000
  C   C159      1.0  0.73760  0.43420  0.52630  1.0000
  C   C160      1.0  0.26240  0.43420  0.97370  1.0000
  C   C161      1.0  0.13830  0.23400  0.57360  1.0000
  C   C162      1.0  0.86170  0.23400  0.92640  1.0000
  C   C163      1.0  0.63830  0.73400  0.57360  1.0000
  C   C164      1.0  0.36170  0.73400  0.92640  1.0000
  C   C165      1.0  0.86170  0.76600  0.42640  1.0000
  C   C166      1.0  0.13830  0.76600  0.07360  1.0000
  C   C167      1.0  0.36170  0.26600  0.42640  1.0000
  C   C168      1.0  0.63830  0.26600  0.07360  1.0000
  H   H73       1.0  0.12525  0.22001  0.60273  1.0000
  H   H74       1.0  0.87475  0.22001  0.89727  1.0000
  H   H75       1.0  0.62525  0.72001  0.60273  1.0000
  H   H76       1.0  0.37475  0.72001  0.89727  1.0000
  H   H77       1.0  0.87475  0.77999  0.39727  1.0000
  H   H78       1.0  0.12525  0.77999  0.10273  1.0000
  H   H79       1.0  0.37475  0.27999  0.39727  1.0000
  H   H80       1.0  0.62525  0.27999  0.10273  1.0000
  C   C169      1.0  0.17890  0.27270  0.57580  1.0000
  C   C170      1.0  0.82110  0.27270  0.92420  1.0000
  C   C171      1.0  0.67890  0.77270  0.57580  1.0000
  C   C172      1.0  0.32110  0.77270  0.92420  1.0000
  C   C173      1.0  0.82110  0.72730  0.42420  1.0000
  C   C174      1.0  0.17890  0.72730  0.07580  1.0000
  C   C175      1.0  0.32110  0.22730  0.42420  1.0000
  C   C176      1.0  0.67890  0.22730  0.07580  1.0000
  H   H81       1.0  0.19293  0.28493  0.60596  1.0000
  H   H82       1.0  0.80707  0.28493  0.89404  1.0000
  H   H83       1.0  0.69293  0.78493  0.60596  1.0000
  H   H84       1.0  0.30707  0.78493  0.89404  1.0000
  H   H85       1.0  0.80707  0.71507  0.39404  1.0000
  H   H86       1.0  0.19293  0.71507  0.10596  1.0000
  H   H87       1.0  0.30707  0.21507  0.39404  1.0000
  H   H88       1.0  0.69293  0.21507  0.10596  1.0000
  C   C177      1.0  0.17640  0.27390  0.48920  1.0000
  C   C178      1.0  0.82360  0.27390  0.01080  1.0000
  C   C179      1.0  0.67640  0.77390  0.48920  1.0000
  C   C180      1.0  0.32360  0.77390  0.01080  1.0000
  C   C181      1.0  0.82360  0.72610  0.51080  1.0000
  C   C182      1.0  0.17640  0.72610  0.98920  1.0000
  C   C183      1.0  0.32360  0.22610  0.51080  1.0000
  C   C184      1.0  0.67640  0.22610  0.98920  1.0000
  H   H89       1.0  0.18932  0.28699  0.45970  1.0000
  H   H90       1.0  0.81068  0.28699  0.04030  1.0000
  H   H91       1.0  0.68932  0.78699  0.45970  1.0000
  H   H92       1.0  0.31068  0.78699  0.04030  1.0000
  H   H93       1.0  0.81068  0.71301  0.54030  1.0000
  H   H94       1.0  0.18932  0.71301  0.95970  1.0000
  H   H95       1.0  0.31068  0.21301  0.54030  1.0000
  H   H96       1.0  0.68932  0.21301  0.95970  1.0000
  C   C185      1.0  0.31000  0.40460  0.55500  1.0000
  C   C186      1.0  0.69000  0.40460  0.94500  1.0000
  C   C187      1.0  0.81000  0.90460  0.55500  1.0000
  C   C188      1.0  0.19000  0.90460  0.94500  1.0000
  C   C189      1.0  0.69000  0.59540  0.44500  1.0000
  C   C190      1.0  0.31000  0.59540  0.05500  1.0000
  C   C191      1.0  0.19000  0.09540  0.44500  1.0000
  C   C192      1.0  0.81000  0.09540  0.05500  1.0000
  C   C193      1.0  0.86530  0.16680  0.43130  1.0000
  C   C194      1.0  0.13470  0.16680  0.06870  1.0000
  C   C195      1.0  0.36530  0.66680  0.43130  1.0000
  C   C196      1.0  0.63470  0.66680  0.06870  1.0000
  C   C197      1.0  0.13470  0.83320  0.56870  1.0000
  C   C198      1.0  0.86530  0.83320  0.93130  1.0000
  C   C199      1.0  0.63470  0.33320  0.56870  1.0000
  C   C200      1.0  0.36530  0.33320  0.93130  1.0000
  H   H97       1.0  0.87915  0.17896  0.40179  1.0000
  H   H98       1.0  0.12085  0.17896  0.09821  1.0000
  H   H99       1.0  0.37915  0.67896  0.40179  1.0000
  H   H100      1.0  0.62085  0.67896  0.09821  1.0000
  H   H101      1.0  0.12085  0.82104  0.59821  1.0000
  H   H102      1.0  0.87915  0.82104  0.90179  1.0000
  H   H103      1.0  0.62085  0.32104  0.59821  1.0000
  H   H104      1.0  0.37915  0.32104  0.90179  1.0000
  C   C201      1.0  0.86560  0.17080  0.51410  1.0000
  C   C202      1.0  0.13440  0.17080  0.98590  1.0000
  C   C203      1.0  0.36560  0.67080  0.51410  1.0000
  C   C204      1.0  0.63440  0.67080  0.98590  1.0000
  C   C205      1.0  0.13440  0.82920  0.48590  1.0000
  C   C206      1.0  0.86560  0.82920  0.01410  1.0000
  C   C207      1.0  0.63440  0.32920  0.48590  1.0000
  C   C208      1.0  0.36560  0.32920  0.01410  1.0000
  H   H105      1.0  0.87942  0.18560  0.54334  1.0000
  H   H106      1.0  0.12058  0.18560  0.95666  1.0000
  H   H107      1.0  0.37942  0.68560  0.54334  1.0000
  H   H108      1.0  0.62058  0.68560  0.95666  1.0000
  H   H109      1.0  0.12058  0.81440  0.45666  1.0000
  H   H110      1.0  0.87942  0.81440  0.04334  1.0000
  H   H111      1.0  0.62058  0.31440  0.45666  1.0000
  H   H112      1.0  0.37942  0.31440  0.04334  1.0000
  C   C209      1.0  0.82440  0.13140  0.51640  1.0000
  C   C210      1.0  0.17560  0.13140  0.98360  1.0000
  C   C211      1.0  0.32440  0.63140  0.51640  1.0000
  C   C212      1.0  0.67560  0.63140  0.98360  1.0000
  C   C213      1.0  0.17560  0.86860  0.48360  1.0000
  C   C214      1.0  0.82440  0.86860  0.01640  1.0000
  C   C215      1.0  0.67560  0.36860  0.48360  1.0000
  C   C216      1.0  0.32440  0.36860  0.01640  1.0000
  H   H113      1.0  0.81080  0.12001  0.54633  1.0000
  H   H114      1.0  0.18920  0.12001  0.95367  1.0000
  H   H115      1.0  0.31080  0.62001  0.54633  1.0000
  H   H116      1.0  0.68920  0.62001  0.95367  1.0000
  H   H117      1.0  0.18920  0.87999  0.45367  1.0000
  H   H118      1.0  0.81080  0.87999  0.04633  1.0000
  H   H119      1.0  0.68920  0.37999  0.45367  1.0000
  H   H120      1.0  0.31080  0.37999  0.04633  1.0000
  C   C217      1.0  0.82430  0.12760  0.43030  1.0000
  C   C218      1.0  0.17570  0.12760  0.06970  1.0000
  C   C219      1.0  0.32430  0.62760  0.43030  1.0000
  C   C220      1.0  0.67570  0.62760  0.06970  1.0000
  C   C221      1.0  0.17570  0.87240  0.56970  1.0000
  C   C222      1.0  0.82430  0.87240  0.93030  1.0000
  C   C223      1.0  0.67570  0.37240  0.56970  1.0000
  C   C224      1.0  0.32430  0.37240  0.93030  1.0000
  H   H121      1.0  0.81059  0.11378  0.40065  1.0000
  H   H122      1.0  0.18941  0.11378  0.09935  1.0000
  H   H123      1.0  0.31059  0.61378  0.40065  1.0000
  H   H124      1.0  0.68941  0.61378  0.09935  1.0000
  H   H125      1.0  0.18941  0.88622  0.59935  1.0000
  H   H126      1.0  0.81059  0.88622  0.90065  1.0000
  H   H127      1.0  0.68941  0.38622  0.59935  1.0000
  H   H128      1.0  0.31059  0.38622  0.90065  1.0000
