data_image0
_chemical_formula_structural       Cd10C8H4C4H4C8H4C4H4C12H4C4H4C8H4C4H4C12H4C4H4C8H4C4H4C16H4C4H4C8H4C4H4C8H4C4H4C8H4C4H4C12H4C4H4C8H4C4H4C4N8O52H8
_chemical_formula_sum              "Cd10 C168 H104 N8 O52"
_cell_length_a       14.6261
_cell_length_b       23.2526
_cell_length_c       15.7357
_cell_angle_alpha    90
_cell_angle_beta     107.099
_cell_angle_gamma    90

_space_group_name_H-M_alt    "P 1"
_space_group_IT_number       1

loop_
  _space_group_symop_operation_xyz
  'x, y, z'

loop_
  _atom_site_type_symbol
  _atom_site_label
  _atom_site_symmetry_multiplicity
  _atom_site_fract_x
  _atom_site_fract_y
  _atom_site_fract_z
  _atom_site_occupancy
  Cd  Cd1       1.0  0.25727  0.30073  0.69677  1.0000
  Cd  Cd2       1.0  0.74273  0.80073  0.80323  1.0000
  Cd  Cd3       1.0  0.74273  0.69927  0.30323  1.0000
  Cd  Cd4       1.0  0.25727  0.19927  0.19677  1.0000
  Cd  Cd5       1.0  1.00000  0.50000  0.50000  1.0000
  Cd  Cd6       1.0  0.00000  0.00000  0.00000  1.0000
  Cd  Cd7       1.0  0.23509  0.43774  0.58374  1.0000
  Cd  Cd8       1.0  0.76491  0.93774  0.91626  1.0000
  Cd  Cd9       1.0  0.76491  0.56226  0.41626  1.0000
  Cd  Cd10      1.0  0.23509  0.06226  0.08374  1.0000
  C   C1        1.0  0.84090  0.29310  0.66070  1.0000
  C   C2        1.0  0.15910  0.79310  0.83930  1.0000
  C   C3        1.0  0.15910  0.70690  0.33930  1.0000
  C   C4        1.0  0.84090  0.20690  0.16070  1.0000
  C   C5        1.0  0.92950  0.29960  0.72130  1.0000
  C   C6        1.0  0.07050  0.79960  0.77870  1.0000
  C   C7        1.0  0.07050  0.70040  0.27870  1.0000
  C   C8        1.0  0.92950  0.20040  0.22130  1.0000
  H   H1        1.0  0.94070  0.28580  0.77890  1.0000
  H   H2        1.0  0.05930  0.78580  0.72110  1.0000
  H   H3        1.0  0.05930  0.71420  0.22110  1.0000
  H   H4        1.0  0.94070  0.21420  0.27890  1.0000
  C   C9        1.0  0.00250  0.32680  0.69670  1.0000
  C   C10       1.0  0.99750  0.82680  0.80330  1.0000
  C   C11       1.0  0.99750  0.67320  0.30330  1.0000
  C   C12       1.0  0.00250  0.17320  0.19670  1.0000
  H   H5        1.0  0.06250  0.33100  0.73800  1.0000
  H   H6        1.0  0.93750  0.83100  0.76200  1.0000
  H   H7        1.0  0.93750  0.66900  0.26200  1.0000
  H   H8        1.0  0.06250  0.16900  0.23800  1.0000
  C   C13       1.0  0.98670  0.34770  0.61170  1.0000
  C   C14       1.0  0.01330  0.84770  0.88830  1.0000
  C   C15       1.0  0.01330  0.65230  0.38830  1.0000
  C   C16       1.0  0.98670  0.15230  0.11170  1.0000
  C   C17       1.0  0.89630  0.34100  0.55130  1.0000
  C   C18       1.0  0.10370  0.84100  0.94870  1.0000
  C   C19       1.0  0.10370  0.65900  0.44870  1.0000
  C   C20       1.0  0.89630  0.15900  0.05130  1.0000
  H   H9        1.0  0.88460  0.35520  0.49390  1.0000
  H   H10       1.0  0.11540  0.85520  0.00610  1.0000
  H   H11       1.0  0.11540  0.64480  0.50610  1.0000
  H   H12       1.0  0.88460  0.14480  0.99390  1.0000
  C   C21       1.0  0.82380  0.31370  0.57530  1.0000
  C   C22       1.0  0.17620  0.81370  0.92470  1.0000
  C   C23       1.0  0.17620  0.68630  0.42470  1.0000
  C   C24       1.0  0.82380  0.18630  0.07530  1.0000
  H   H13       1.0  0.76390  0.30920  0.53410  1.0000
  H   H14       1.0  0.23610  0.80920  0.96590  1.0000
  H   H15       1.0  0.23610  0.69080  0.46590  1.0000
  H   H16       1.0  0.76390  0.19080  0.03410  1.0000
  C   C25       1.0  0.06230  0.37810  0.58510  1.0000
  C   C26       1.0  0.93770  0.87810  0.91490  1.0000
  C   C27       1.0  0.93770  0.62190  0.41490  1.0000
  C   C28       1.0  0.06230  0.12190  0.08510  1.0000
  C   C29       1.0  0.78200  0.21140  0.73020  1.0000
  C   C30       1.0  0.21800  0.71140  0.76980  1.0000
  C   C31       1.0  0.21800  0.78860  0.26980  1.0000
  C   C32       1.0  0.78200  0.28860  0.23020  1.0000
  C   C33       1.0  0.85100  0.17360  0.71790  1.0000
  C   C34       1.0  0.14900  0.67360  0.78210  1.0000
  C   C35       1.0  0.14900  0.82640  0.28210  1.0000
  C   C36       1.0  0.85100  0.32640  0.21790  1.0000
  H   H17       1.0  0.88820  0.18380  0.68150  1.0000
  H   H18       1.0  0.11180  0.68380  0.81850  1.0000
  H   H19       1.0  0.11180  0.81620  0.31850  1.0000
  H   H20       1.0  0.88820  0.31620  0.18150  1.0000
  C   C37       1.0  0.86380  0.12040  0.76060  1.0000
  C   C38       1.0  0.13620  0.62040  0.73940  1.0000
  C   C39       1.0  0.13620  0.87960  0.23940  1.0000
  C   C40       1.0  0.86380  0.37960  0.26060  1.0000
  H   H21       1.0  0.91220  0.09610  0.75500  1.0000
  H   H22       1.0  0.08780  0.59610  0.74500  1.0000
  H   H23       1.0  0.08780  0.90390  0.24500  1.0000
  H   H24       1.0  0.91220  0.40390  0.25500  1.0000
  C   C41       1.0  0.80660  0.10360  0.81020  1.0000
  C   C42       1.0  0.19340  0.60360  0.68980  1.0000
  C   C43       1.0  0.19340  0.89640  0.18980  1.0000
  C   C44       1.0  0.80660  0.39640  0.31020  1.0000
  C   C45       1.0  0.73830  0.14110  0.82270  1.0000
  C   C46       1.0  0.26170  0.64110  0.67730  1.0000
  C   C47       1.0  0.26170  0.85890  0.17730  1.0000
  C   C48       1.0  0.73830  0.35890  0.32270  1.0000
  H   H25       1.0  0.69930  0.12980  0.85690  1.0000
  H   H26       1.0  0.30070  0.62980  0.64310  1.0000
  H   H27       1.0  0.30070  0.87020  0.14310  1.0000
  H   H28       1.0  0.69930  0.37020  0.35690  1.0000
  C   C49       1.0  0.72750  0.19480  0.78520  1.0000
  C   C50       1.0  0.27250  0.69480  0.71480  1.0000
  C   C51       1.0  0.27250  0.80520  0.21480  1.0000
  C   C52       1.0  0.72750  0.30520  0.28520  1.0000
  H   H29       1.0  0.68350  0.22030  0.79660  1.0000
  H   H30       1.0  0.31650  0.72030  0.70340  1.0000
  H   H31       1.0  0.31650  0.77970  0.20340  1.0000
  H   H32       1.0  0.68350  0.27970  0.29660  1.0000
  C   C53       1.0  0.81510  0.04420  0.85050  1.0000
  C   C54       1.0  0.18490  0.54420  0.64950  1.0000
  C   C55       1.0  0.18490  0.95580  0.14950  1.0000
  C   C56       1.0  0.81510  0.45580  0.35050  1.0000
  C   C57       1.0  0.67520  0.29130  0.66500  1.0000
  C   C58       1.0  0.32480  0.79130  0.83500  1.0000
  C   C59       1.0  0.32480  0.70870  0.33500  1.0000
  C   C60       1.0  0.67520  0.20870  0.16500  1.0000
  C   C61       1.0  0.66740  0.34940  0.67720  1.0000
  C   C62       1.0  0.33260  0.84940  0.82280  1.0000
  C   C63       1.0  0.33260  0.65060  0.32280  1.0000
  C   C64       1.0  0.66740  0.15060  0.17720  1.0000
  H   H33       1.0  0.72240  0.37160  0.69800  1.0000
  H   H34       1.0  0.27760  0.87160  0.80200  1.0000
  H   H35       1.0  0.27760  0.62840  0.30200  1.0000
  H   H36       1.0  0.72240  0.12840  0.19800  1.0000
  C   C65       1.0  0.57930  0.37510  0.65890  1.0000
  C   C66       1.0  0.42070  0.87510  0.84110  1.0000
  C   C67       1.0  0.42070  0.62490  0.34110  1.0000
  C   C68       1.0  0.57930  0.12490  0.15890  1.0000
  H   H37       1.0  0.57540  0.41450  0.66720  1.0000
  H   H38       1.0  0.42460  0.91450  0.83280  1.0000
  H   H39       1.0  0.42460  0.58550  0.33280  1.0000
  H   H40       1.0  0.57540  0.08550  0.16720  1.0000
  C   C69       1.0  0.49540  0.34280  0.62780  1.0000
  C   C70       1.0  0.50460  0.84280  0.87220  1.0000
  C   C71       1.0  0.50460  0.65720  0.37220  1.0000
  C   C72       1.0  0.49540  0.15720  0.12780  1.0000
  C   C73       1.0  0.50370  0.28530  0.61440  1.0000
  C   C74       1.0  0.49630  0.78530  0.88560  1.0000
  C   C75       1.0  0.49630  0.71470  0.38560  1.0000
  C   C76       1.0  0.50370  0.21470  0.11440  1.0000
  H   H41       1.0  0.44870  0.26310  0.59380  1.0000
  H   H42       1.0  0.55130  0.76310  0.90620  1.0000
  H   H43       1.0  0.55130  0.73690  0.40620  1.0000
  H   H44       1.0  0.44870  0.23690  0.09380  1.0000
  C   C77       1.0  0.59230  0.25930  0.63070  1.0000
  C   C78       1.0  0.40770  0.75930  0.86930  1.0000
  C   C79       1.0  0.40770  0.74070  0.36930  1.0000
  C   C80       1.0  0.59230  0.24070  0.13070  1.0000
  H   H45       1.0  0.59630  0.22040  0.61870  1.0000
  H   H46       1.0  0.40370  0.72040  0.88130  1.0000
  H   H47       1.0  0.40370  0.77960  0.38130  1.0000
  H   H48       1.0  0.59630  0.27960  0.11870  1.0000
  C   C81       1.0  0.39950  0.37140  0.61140  1.0000
  C   C82       1.0  0.60050  0.87140  0.88860  1.0000
  C   C83       1.0  0.60050  0.62860  0.38860  1.0000
  C   C84       1.0  0.39950  0.12860  0.11140  1.0000
  C   C85       1.0  0.16790  0.48790  0.40080  1.0000
  C   C86       1.0  0.83210  0.98790  0.09920  1.0000
  C   C87       1.0  0.83210  0.51210  0.59920  1.0000
  C   C88       1.0  0.16790  0.01210  0.90080  1.0000
  C   C89       1.0  0.16590  0.50440  0.30710  1.0000
  C   C90       1.0  0.83410  0.00440  0.19290  1.0000
  C   C91       1.0  0.83410  0.49560  0.69290  1.0000
  C   C92       1.0  0.16590  0.99560  0.80710  1.0000
  C   C93       1.0  0.08690  0.53310  0.25260  1.0000
  C   C94       1.0  0.91310  0.03310  0.24740  1.0000
  C   C95       1.0  0.91310  0.46690  0.74740  1.0000
  C   C96       1.0  0.08690  0.96690  0.75260  1.0000
  H   H49       1.0  0.03620  0.54270  0.27440  1.0000
  H   H50       1.0  0.96380  0.04270  0.22560  1.0000
  H   H51       1.0  0.96380  0.45730  0.72560  1.0000
  H   H52       1.0  0.03620  0.95730  0.77440  1.0000
  C   C97       1.0  0.08280  0.54750  0.16750  1.0000
  C   C98       1.0  0.91720  0.04750  0.33250  1.0000
  C   C99       1.0  0.91720  0.45250  0.83250  1.0000
  C   C100      1.0  0.08280  0.95250  0.66750  1.0000
  H   H53       1.0  0.02860  0.56580  0.13170  1.0000
  H   H54       1.0  0.97140  0.06580  0.36830  1.0000
  H   H55       1.0  0.97140  0.43420  0.86830  1.0000
  H   H56       1.0  0.02860  0.93420  0.63170  1.0000
  C   C101      1.0  0.15820  0.53540  0.13330  1.0000
  C   C102      1.0  0.84180  0.03540  0.36670  1.0000
  C   C103      1.0  0.84180  0.46460  0.86670  1.0000
  C   C104      1.0  0.15820  0.96460  0.63330  1.0000
  C   C105      1.0  0.23800  0.50810  0.18900  1.0000
  C   C106      1.0  0.76200  0.00810  0.31100  1.0000
  C   C107      1.0  0.76200  0.49190  0.81100  1.0000
  C   C108      1.0  0.23800  0.99190  0.68900  1.0000
  H   H57       1.0  0.29080  0.50110  0.16910  1.0000
  H   H58       1.0  0.70920  0.00110  0.33090  1.0000
  H   H59       1.0  0.70920  0.49890  0.83090  1.0000
  H   H60       1.0  0.29080  0.99890  0.66910  1.0000
  C   C109      1.0  0.23980  0.49140  0.27330  1.0000
  C   C110      1.0  0.76020  0.99140  0.22670  1.0000
  C   C111      1.0  0.76020  0.50860  0.72670  1.0000
  C   C112      1.0  0.23980  0.00860  0.77330  1.0000
  H   H61       1.0  0.29210  0.47090  0.30810  1.0000
  H   H62       1.0  0.70790  0.97090  0.19190  1.0000
  H   H63       1.0  0.70790  0.52910  0.69190  1.0000
  H   H64       1.0  0.29210  0.02910  0.80810  1.0000
  C   C113      1.0  0.18600  0.50680  0.99220  1.0000
  C   C114      1.0  0.81400  0.00680  0.50780  1.0000
  C   C115      1.0  0.81400  0.49320  0.00780  1.0000
  C   C116      1.0  0.18600  0.99320  0.49220  1.0000
  C   C117      1.0  0.17220  0.44920  0.00340  1.0000
  C   C118      1.0  0.82780  0.94920  0.49660  1.0000
  C   C119      1.0  0.82780  0.55080  0.99660  1.0000
  C   C120      1.0  0.17220  0.05080  0.50340  1.0000
  H   H65       1.0  0.14360  0.43730  0.04590  1.0000
  H   H66       1.0  0.85640  0.93730  0.45410  1.0000
  H   H67       1.0  0.85640  0.56270  0.95410  1.0000
  H   H68       1.0  0.14360  0.06270  0.54590  1.0000
  C   C121      1.0  0.20040  0.40900  0.95220  1.0000
  C   C122      1.0  0.79960  0.90900  0.54780  1.0000
  C   C123      1.0  0.79960  0.59100  0.04780  1.0000
  C   C124      1.0  0.20040  0.09100  0.45220  1.0000
  H   H69       1.0  0.19240  0.37020  0.96210  1.0000
  H   H70       1.0  0.80760  0.87020  0.53790  1.0000
  H   H71       1.0  0.80760  0.62980  0.03790  1.0000
  H   H72       1.0  0.19240  0.12980  0.46210  1.0000
  C   C125      1.0  0.23980  0.42480  0.88730  1.0000
  C   C126      1.0  0.76020  0.92480  0.61270  1.0000
  C   C127      1.0  0.76020  0.57520  0.11270  1.0000
  C   C128      1.0  0.23980  0.07520  0.38730  1.0000
  C   C129      1.0  0.25350  0.48220  0.87510  1.0000
  C   C130      1.0  0.74650  0.98220  0.62490  1.0000
  C   C131      1.0  0.74650  0.51780  0.12490  1.0000
  C   C132      1.0  0.25350  0.01780  0.37510  1.0000
  H   H73       1.0  0.28080  0.49350  0.83130  1.0000
  H   H74       1.0  0.71920  0.99350  0.66870  1.0000
  H   H75       1.0  0.71920  0.50650  0.16870  1.0000
  H   H76       1.0  0.28080  0.00650  0.33130  1.0000
  C   C133      1.0  0.22720  0.52420  0.92700  1.0000
  C   C134      1.0  0.77280  0.02420  0.57300  1.0000
  C   C135      1.0  0.77280  0.47580  0.07300  1.0000
  C   C136      1.0  0.22720  0.97580  0.42700  1.0000
  H   H77       1.0  0.23710  0.56300  0.91820  1.0000
  H   H78       1.0  0.76290  0.06300  0.58180  1.0000
  H   H79       1.0  0.76290  0.43700  0.08180  1.0000
  H   H80       1.0  0.23710  0.93700  0.41820  1.0000
  C   C137      1.0  0.26530  0.38000  0.82680  1.0000
  C   C138      1.0  0.73470  0.88000  0.67320  1.0000
  C   C139      1.0  0.73470  0.62000  0.17320  1.0000
  C   C140      1.0  0.26530  0.12000  0.32680  1.0000
  C   C141      1.0  0.09120  0.59400  0.99980  1.0000
  C   C142      1.0  0.90880  0.09400  0.50020  1.0000
  C   C143      1.0  0.90880  0.40600  0.00020  1.0000
  C   C144      1.0  0.09120  0.90600  0.49980  1.0000
  C   C145      1.0  0.02890  0.58610  0.91550  1.0000
  C   C146      1.0  0.97110  0.08610  0.58450  1.0000
  C   C147      1.0  0.97110  0.41390  0.08450  1.0000
  C   C148      1.0  0.02890  0.91390  0.41550  1.0000
  H   H81       1.0  0.03200  0.55250  0.88430  1.0000
  H   H82       1.0  0.96800  0.05250  0.61570  1.0000
  H   H83       1.0  0.96800  0.44750  0.11570  1.0000
  H   H84       1.0  0.03200  0.94750  0.38430  1.0000
  C   C149      1.0  0.96190  0.62770  0.87720  1.0000
  C   C150      1.0  0.03810  0.12770  0.62280  1.0000
  C   C151      1.0  0.03810  0.37230  0.12280  1.0000
  C   C152      1.0  0.96190  0.87230  0.37720  1.0000
  H   H85       1.0  0.92090  0.62170  0.82030  1.0000
  H   H86       1.0  0.07910  0.12170  0.67970  1.0000
  H   H87       1.0  0.07910  0.37830  0.17970  1.0000
  H   H88       1.0  0.92090  0.87830  0.32030  1.0000
  C   C153      1.0  0.95480  0.67780  0.92150  1.0000
  C   C154      1.0  0.04520  0.17780  0.57850  1.0000
  C   C155      1.0  0.04520  0.32220  0.07850  1.0000
  C   C156      1.0  0.95480  0.82220  0.42150  1.0000
  C   C157      1.0  0.02190  0.68700  0.00410  1.0000
  C   C158      1.0  0.97810  0.18700  0.49590  1.0000
  C   C159      1.0  0.97810  0.31300  0.99590  1.0000
  C   C160      1.0  0.02190  0.81300  0.50410  1.0000
  H   H89       1.0  0.02090  0.72130  0.03420  1.0000
  H   H90       1.0  0.97910  0.22130  0.46580  1.0000
  H   H91       1.0  0.97910  0.27870  0.96580  1.0000
  H   H92       1.0  0.02090  0.77870  0.53420  1.0000
  C   C161      1.0  0.08920  0.64630  0.04140  1.0000
  C   C162      1.0  0.91080  0.14630  0.45860  1.0000
  C   C163      1.0  0.91080  0.35370  0.95860  1.0000
  C   C164      1.0  0.08920  0.85370  0.54140  1.0000
  H   H93       1.0  0.13430  0.65380  0.09570  1.0000
  H   H94       1.0  0.86570  0.15380  0.40430  1.0000
  H   H95       1.0  0.86570  0.34620  0.90430  1.0000
  H   H96       1.0  0.13430  0.84620  0.59570  1.0000
  C   C165      1.0  0.87780  0.72050  0.88400  1.0000
  C   C166      1.0  0.12220  0.22050  0.61600  1.0000
  C   C167      1.0  0.12220  0.27950  0.11600  1.0000
  C   C168      1.0  0.87780  0.77950  0.38400  1.0000
  N   N1        1.0  0.76570  0.26510  0.68640  1.0000
  N   N2        1.0  0.23430  0.76510  0.81360  1.0000
  N   N3        1.0  0.23430  0.73490  0.31360  1.0000
  N   N4        1.0  0.76570  0.23490  0.18640  1.0000
  N   N5        1.0  0.15450  0.54950  0.04480  1.0000
  N   N6        1.0  0.84550  0.04950  0.45520  1.0000
  N   N7        1.0  0.84550  0.45050  0.95520  1.0000
  N   N8        1.0  0.15450  0.95050  0.54480  1.0000
  O   O1        1.0  0.04180  0.40498  0.51300  1.0000
  O   O2        1.0  0.95820  0.90498  0.98700  1.0000
  O   O3        1.0  0.95820  0.59502  0.48700  1.0000
  O   O4        1.0  0.04180  0.09502  0.01300  1.0000
  O   O5        1.0  0.14740  0.37634  0.63690  1.0000
  O   O6        1.0  0.85260  0.87634  0.86310  1.0000
  O   O7        1.0  0.85260  0.62366  0.36310  1.0000
  O   O8        1.0  0.14740  0.12366  0.13690  1.0000
  O   O9        1.0  0.74120  0.02550  0.86640  1.0000
  O   O10       1.0  0.25880  0.52550  0.63360  1.0000
  O   O11       1.0  0.25880  0.97450  0.13360  1.0000
  O   O12       1.0  0.74120  0.47450  0.36640  1.0000
  O   O13       1.0  0.89130  0.01699  0.86360  1.0000
  O   O14       1.0  0.10870  0.51699  0.63640  1.0000
  O   O15       1.0  0.10870  0.98301  0.13640  1.0000
  O   O16       1.0  0.89130  0.48301  0.36360  1.0000
  O   O17       1.0  0.39500  0.42410  0.61210  1.0000
  O   O18       1.0  0.60500  0.92410  0.88790  1.0000
  O   O19       1.0  0.60500  0.57590  0.38790  1.0000
  O   O20       1.0  0.39500  0.07590  0.11210  1.0000
  O   O21       1.0  0.32620  0.34010  0.59620  1.0000
  O   O22       1.0  0.67380  0.84010  0.90380  1.0000
  O   O23       1.0  0.67380  0.65990  0.40380  1.0000
  O   O24       1.0  0.32620  0.15990  0.09620  1.0000
  O   O25       1.0  0.22460  0.44970  0.44030  1.0000
  O   O26       1.0  0.77540  0.94970  0.05970  1.0000
  O   O27       1.0  0.77540  0.55030  0.55970  1.0000
  O   O28       1.0  0.22460  0.05030  0.94030  1.0000
  O   O29       1.0  0.11140  0.51523  0.43370  1.0000
  O   O30       1.0  0.88860  0.01523  0.06630  1.0000
  O   O31       1.0  0.88860  0.48477  0.56630  1.0000
  O   O32       1.0  0.11140  0.98477  0.93370  1.0000
  O   O33       1.0  0.31260  0.39620  0.77680  1.0000
  O   O34       1.0  0.68740  0.89620  0.72320  1.0000
  O   O35       1.0  0.68740  0.60380  0.22320  1.0000
  O   O36       1.0  0.31260  0.10380  0.27680  1.0000
  O   O37       1.0  0.23600  0.32930  0.82960  1.0000
  O   O38       1.0  0.76400  0.82930  0.67040  1.0000
  O   O39       1.0  0.76400  0.67070  0.17040  1.0000
  O   O40       1.0  0.23600  0.17070  0.32960  1.0000
  O   O41       1.0  0.83830  0.72100  0.80200  1.0000
  O   O42       1.0  0.16170  0.22100  0.69800  1.0000
  O   O43       1.0  0.16170  0.27900  0.19800  1.0000
  O   O44       1.0  0.83830  0.77900  0.30200  1.0000
  O   O45       1.0  0.85200  0.75450  0.93440  1.0000
  O   O46       1.0  0.14800  0.25450  0.56560  1.0000
  O   O47       1.0  0.14800  0.24550  0.06560  1.0000
  O   O48       1.0  0.85200  0.74550  0.43440  1.0000
  O   O49       1.0  0.38980  0.24920  0.75850  1.0000
  O   O50       1.0  0.61020  0.74920  0.74150  1.0000
  O   O51       1.0  0.61020  0.75080  0.24150  1.0000
  O   O52       1.0  0.38980  0.25080  0.25850  1.0000
  H   H97       1.0  0.39720  0.21360  0.77080  1.0000
  H   H98       1.0  0.60280  0.71360  0.72920  1.0000
  H   H99       1.0  0.60280  0.78640  0.22920  1.0000
  H   H100      1.0  0.39720  0.28640  0.27080  1.0000
  H   H101      1.0  0.44380  0.26550  0.77930  1.0000
  H   H102      1.0  0.55620  0.76550  0.72070  1.0000
  H   H103      1.0  0.55620  0.73450  0.22070  1.0000
  H   H104      1.0  0.44380  0.23450  0.27930  1.0000
