data_image0
_chemical_formula_structural       C24H16O28H4K4
_chemical_formula_sum              "C24 H20 O28 K4"
_cell_length_a       6.0238
_cell_length_b       13.2926
_cell_length_c       13.4156
_cell_angle_alpha    90
_cell_angle_beta     93.131
_cell_angle_gamma    90

_space_group_name_H-M_alt    "P 1"
_space_group_IT_number       1

loop_
  _space_group_symop_operation_xyz
  'x, y, z'

loop_
  _atom_site_type_symbol
  _atom_site_label
  _atom_site_symmetry_multiplicity
  _atom_site_fract_x
  _atom_site_fract_y
  _atom_site_fract_z
  _atom_site_occupancy
  C   C1        1.0  0.87318  0.03565  0.86687  1.0000
  C   C2        1.0  0.12682  0.53565  0.63313  1.0000
  C   C3        1.0  0.12682  0.96435  0.13313  1.0000
  C   C4        1.0  0.87318  0.46435  0.36687  1.0000
  C   C5        1.0  0.72599  0.08314  0.94344  1.0000
  C   C6        1.0  0.27401  0.58314  0.55656  1.0000
  C   C7        1.0  0.27401  0.91686  0.05656  1.0000
  C   C8        1.0  0.72599  0.41686  0.44344  1.0000
  C   C9        1.0  0.76903  0.19496  0.96828  1.0000
  C   C10       1.0  0.23097  0.69496  0.53172  1.0000
  C   C11       1.0  0.23097  0.80504  0.03172  1.0000
  C   C12       1.0  0.76903  0.30504  0.46828  1.0000
  C   C13       1.0  0.63480  0.22315  0.05833  1.0000
  C   C14       1.0  0.36520  0.72315  0.44167  1.0000
  C   C15       1.0  0.36520  0.77685  0.94167  1.0000
  C   C16       1.0  0.63480  0.27685  0.55833  1.0000
  C   C17       1.0  0.63310  0.33416  0.08863  1.0000
  C   C18       1.0  0.36690  0.83416  0.41137  1.0000
  C   C19       1.0  0.36690  0.66584  0.91137  1.0000
  C   C20       1.0  0.63310  0.16584  0.58863  1.0000
  C   C21       1.0  0.68765  0.25946  0.87689  1.0000
  C   C22       1.0  0.31235  0.75946  0.62311  1.0000
  C   C23       1.0  0.31235  0.74054  0.12311  1.0000
  C   C24       1.0  0.68765  0.24054  0.37689  1.0000
  H   H1        1.0  0.75607  0.03931  0.01180  1.0000
  H   H2        1.0  0.24393  0.53931  0.48820  1.0000
  H   H3        1.0  0.24393  0.96069  0.98820  1.0000
  H   H4        1.0  0.75607  0.46069  0.51180  1.0000
  H   H5        1.0  0.55188  0.07301  0.91973  1.0000
  H   H6        1.0  0.44812  0.57301  0.58027  1.0000
  H   H7        1.0  0.44812  0.92699  0.08027  1.0000
  H   H8        1.0  0.55188  0.42699  0.41973  1.0000
  H   H9        1.0  0.46410  0.19855  0.04385  1.0000
  H   H10       1.0  0.53590  0.69855  0.45615  1.0000
  H   H11       1.0  0.53590  0.80145  0.95615  1.0000
  H   H12       1.0  0.46410  0.30145  0.54385  1.0000
  H   H13       1.0  0.70341  0.18054  0.12249  1.0000
  H   H14       1.0  0.29659  0.68054  0.37751  1.0000
  H   H15       1.0  0.29659  0.81946  0.87751  1.0000
  H   H16       1.0  0.70341  0.31946  0.62249  1.0000
  O   O1        1.0  0.80347  0.95738  0.82266  1.0000
  O   O2        1.0  0.19653  0.45738  0.67734  1.0000
  O   O3        1.0  0.19653  0.04262  0.17734  1.0000
  O   O4        1.0  0.80347  0.54262  0.32266  1.0000
  O   O5        1.0  0.44391  0.37143  0.10579  1.0000
  O   O6        1.0  0.55609  0.87143  0.39421  1.0000
  O   O7        1.0  0.55609  0.62857  0.89421  1.0000
  O   O8        1.0  0.44391  0.12857  0.60579  1.0000
  O   O9        1.0  0.81343  0.38194  0.09793  1.0000
  O   O10       1.0  0.18657  0.88194  0.40207  1.0000
  O   O11       1.0  0.18657  0.61806  0.90207  1.0000
  O   O12       1.0  0.81343  0.11806  0.59793  1.0000
  O   O13       1.0  0.48252  0.26029  0.85377  1.0000
  O   O14       1.0  0.51748  0.76029  0.64623  1.0000
  O   O15       1.0  0.51748  0.73971  0.14623  1.0000
  O   O16       1.0  0.48252  0.23971  0.35377  1.0000
  O   O17       1.0  0.83050  0.30870  0.83032  1.0000
  O   O18       1.0  0.16950  0.80870  0.66968  1.0000
  O   O19       1.0  0.16950  0.69130  0.16968  1.0000
  O   O20       1.0  0.83050  0.19130  0.33032  1.0000
  O   O21       1.0  0.99968  0.21047  0.99448  1.0000
  O   O22       1.0  0.00032  0.71047  0.50552  1.0000
  O   O23       1.0  0.00032  0.78953  0.00552  1.0000
  O   O24       1.0  0.99968  0.28953  0.49448  1.0000
  O   O25       1.0  0.06265  0.07558  0.85523  1.0000
  O   O26       1.0  0.93735  0.57558  0.64477  1.0000
  O   O27       1.0  0.93735  0.92442  0.14477  1.0000
  O   O28       1.0  0.06265  0.42442  0.35523  1.0000
  H   H17       1.0  0.07924  0.17143  0.94538  1.0000
  H   H18       1.0  0.92076  0.67143  0.55462  1.0000
  H   H19       1.0  0.92076  0.82857  0.05462  1.0000
  H   H20       1.0  0.07924  0.32857  0.44538  1.0000
  K   K1        1.0  0.13783  0.25540  0.19900  1.0000
  K   K2        1.0  0.86217  0.75540  0.30100  1.0000
  K   K3        1.0  0.86217  0.74460  0.80100  1.0000
  K   K4        1.0  0.13783  0.24460  0.69900  1.0000
