data_image0
_chemical_formula_structural       C24H16O28H4K4
_chemical_formula_sum              "C24 H20 O28 K4"
_cell_length_a       5.952
_cell_length_b       13.261
_cell_length_c       13.266
_cell_angle_alpha    90
_cell_angle_beta     92.88
_cell_angle_gamma    90

_space_group_name_H-M_alt    "P 1"
_space_group_IT_number       1

loop_
  _space_group_symop_operation_xyz
  'x, y, z'

loop_
  _atom_site_type_symbol
  _atom_site_label
  _atom_site_symmetry_multiplicity
  _atom_site_fract_x
  _atom_site_fract_y
  _atom_site_fract_z
  _atom_site_occupancy
  C   C1        1.0  0.88640  0.03730  0.85830  1.0000
  C   C2        1.0  0.11360  0.53730  0.64170  1.0000
  C   C3        1.0  0.11360  0.96270  0.14170  1.0000
  C   C4        1.0  0.88640  0.46270  0.35830  1.0000
  C   C5        1.0  0.75700  0.08120  0.94220  1.0000
  C   C6        1.0  0.24300  0.58120  0.55780  1.0000
  C   C7        1.0  0.24300  0.91880  0.05780  1.0000
  C   C8        1.0  0.75700  0.41880  0.44220  1.0000
  C   C9        1.0  0.79310  0.19420  0.96080  1.0000
  C   C10       1.0  0.20690  0.69420  0.53920  1.0000
  C   C11       1.0  0.20690  0.80580  0.03920  1.0000
  C   C12       1.0  0.79310  0.30580  0.46080  1.0000
  C   C13       1.0  0.66920  0.22650  0.05270  1.0000
  C   C14       1.0  0.33080  0.72650  0.44730  1.0000
  C   C15       1.0  0.33080  0.77350  0.94730  1.0000
  C   C16       1.0  0.66920  0.27350  0.55270  1.0000
  C   C17       1.0  0.65560  0.33900  0.07210  1.0000
  C   C18       1.0  0.34440  0.83900  0.42790  1.0000
  C   C19       1.0  0.34440  0.66100  0.92790  1.0000
  C   C20       1.0  0.65560  0.16100  0.57210  1.0000
  C   C21       1.0  0.70430  0.25400  0.86790  1.0000
  C   C22       1.0  0.29570  0.75400  0.63210  1.0000
  C   C23       1.0  0.29570  0.74600  0.13210  1.0000
  C   C24       1.0  0.70430  0.24600  0.36790  1.0000
  H   H1        1.0  0.77670  0.04320  0.99960  1.0000
  H   H2        1.0  0.22330  0.54320  0.50040  1.0000
  H   H3        1.0  0.22330  0.95680  0.00040  1.0000
  H   H4        1.0  0.77670  0.45680  0.49960  1.0000
  H   H5        1.0  0.57450  0.06940  0.92620  1.0000
  H   H6        1.0  0.42550  0.56940  0.57380  1.0000
  H   H7        1.0  0.42550  0.93060  0.07380  1.0000
  H   H8        1.0  0.57450  0.43060  0.42620  1.0000
  H   H9        1.0  0.50370  0.20020  0.04630  1.0000
  H   H10       1.0  0.49630  0.70020  0.45370  1.0000
  H   H11       1.0  0.49630  0.79980  0.95370  1.0000
  H   H12       1.0  0.50370  0.29980  0.54630  1.0000
  H   H13       1.0  0.71580  0.19530  0.10950  1.0000
  H   H14       1.0  0.28420  0.69530  0.39050  1.0000
  H   H15       1.0  0.28420  0.80470  0.89050  1.0000
  H   H16       1.0  0.71580  0.30470  0.60950  1.0000
  O   O1        1.0  0.80800  0.96100  0.81450  1.0000
  O   O2        1.0  0.19200  0.46100  0.68550  1.0000
  O   O3        1.0  0.19200  0.03900  0.18550  1.0000
  O   O4        1.0  0.80800  0.53900  0.31450  1.0000
  O   O5        1.0  0.47350  0.37350  0.09710  1.0000
  O   O6        1.0  0.52650  0.87350  0.40290  1.0000
  O   O7        1.0  0.52650  0.62650  0.90290  1.0000
  O   O8        1.0  0.47350  0.12650  0.59710  1.0000
  O   O9        1.0  0.82650  0.39030  0.06390  1.0000
  O   O10       1.0  0.17350  0.89030  0.43610  1.0000
  O   O11       1.0  0.17350  0.60970  0.93610  1.0000
  O   O12       1.0  0.82650  0.10970  0.56390  1.0000
  O   O13       1.0  0.49800  0.25950  0.85270  1.0000
  O   O14       1.0  0.50200  0.75950  0.64730  1.0000
  O   O15       1.0  0.50200  0.74050  0.14730  1.0000
  O   O16       1.0  0.49800  0.24050  0.35270  1.0000
  O   O17       1.0  0.84460  0.29290  0.81590  1.0000
  O   O18       1.0  0.15540  0.79290  0.68410  1.0000
  O   O19       1.0  0.15540  0.70710  0.18410  1.0000
  O   O20       1.0  0.84460  0.20710  0.31590  1.0000
  O   O21       1.0  0.02580  0.21300  0.97840  1.0000
  O   O22       1.0  0.97420  0.71300  0.52160  1.0000
  O   O23       1.0  0.97420  0.78700  0.02160  1.0000
  O   O24       1.0  0.02580  0.28700  0.47840  1.0000
  O   O25       1.0  0.06080  0.08060  0.83620  1.0000
  O   O26       1.0  0.93920  0.58060  0.66380  1.0000
  O   O27       1.0  0.93920  0.91940  0.16380  1.0000
  O   O28       1.0  0.06080  0.41940  0.33620  1.0000
  H   H17       1.0  0.08650  0.16790  0.93840  1.0000
  H   H18       1.0  0.91350  0.66790  0.56160  1.0000
  H   H19       1.0  0.91350  0.83210  0.06160  1.0000
  H   H20       1.0  0.08650  0.33210  0.43840  1.0000
  K   K1        1.0  0.15860  0.25840  0.19320  1.0000
  K   K2        1.0  0.84140  0.75840  0.30680  1.0000
  K   K3        1.0  0.84140  0.74160  0.80680  1.0000
  K   K4        1.0  0.15860  0.24160  0.69320  1.0000
