data_image0
_chemical_formula_structural       C24H16O28H4K4
_chemical_formula_sum              "C24 H20 O28 K4"
_cell_length_a       6.0238
_cell_length_b       13.2925
_cell_length_c       13.4155
_cell_angle_alpha    90
_cell_angle_beta     93.131
_cell_angle_gamma    90

_space_group_name_H-M_alt    "P 1"
_space_group_IT_number       1

loop_
  _space_group_symop_operation_xyz
  'x, y, z'

loop_
  _atom_site_type_symbol
  _atom_site_label
  _atom_site_symmetry_multiplicity
  _atom_site_fract_x
  _atom_site_fract_y
  _atom_site_fract_z
  _atom_site_occupancy
  C   C1        1.0  0.88640  0.03740  0.85840  1.0000
  C   C2        1.0  0.11360  0.53740  0.64160  1.0000
  C   C3        1.0  0.11360  0.96260  0.14160  1.0000
  C   C4        1.0  0.88640  0.46260  0.35840  1.0000
  C   C5        1.0  0.75690  0.08120  0.94220  1.0000
  C   C6        1.0  0.24310  0.58120  0.55780  1.0000
  C   C7        1.0  0.24310  0.91880  0.05780  1.0000
  C   C8        1.0  0.75690  0.41880  0.44220  1.0000
  C   C9        1.0  0.79310  0.19420  0.96080  1.0000
  C   C10       1.0  0.20690  0.69420  0.53920  1.0000
  C   C11       1.0  0.20690  0.80580  0.03920  1.0000
  C   C12       1.0  0.79310  0.30580  0.46080  1.0000
  C   C13       1.0  0.66910  0.22640  0.05270  1.0000
  C   C14       1.0  0.33090  0.72640  0.44730  1.0000
  C   C15       1.0  0.33090  0.77360  0.94730  1.0000
  C   C16       1.0  0.66910  0.27360  0.55270  1.0000
  C   C17       1.0  0.65560  0.33890  0.07210  1.0000
  C   C18       1.0  0.34440  0.83890  0.42790  1.0000
  C   C19       1.0  0.34440  0.66110  0.92790  1.0000
  C   C20       1.0  0.65560  0.16110  0.57210  1.0000
  C   C21       1.0  0.70430  0.25400  0.86790  1.0000
  C   C22       1.0  0.29570  0.75400  0.63210  1.0000
  C   C23       1.0  0.29570  0.74600  0.13210  1.0000
  C   C24       1.0  0.70430  0.24600  0.36790  1.0000
  H   H1        1.0  0.77670  0.04320  0.99960  1.0000
  H   H2        1.0  0.22330  0.54320  0.50040  1.0000
  H   H3        1.0  0.22330  0.95680  0.00040  1.0000
  H   H4        1.0  0.77670  0.45680  0.49960  1.0000
  H   H5        1.0  0.57450  0.06940  0.92620  1.0000
  H   H6        1.0  0.42550  0.56940  0.57380  1.0000
  H   H7        1.0  0.42550  0.93060  0.07380  1.0000
  H   H8        1.0  0.57450  0.43060  0.42620  1.0000
  H   H9        1.0  0.50370  0.20020  0.04630  1.0000
  H   H10       1.0  0.49630  0.70020  0.45370  1.0000
  H   H11       1.0  0.49630  0.79980  0.95370  1.0000
  H   H12       1.0  0.50370  0.29980  0.54630  1.0000
  H   H13       1.0  0.71580  0.19530  0.10950  1.0000
  H   H14       1.0  0.28420  0.69530  0.39050  1.0000
  H   H15       1.0  0.28420  0.80470  0.89050  1.0000
  H   H16       1.0  0.71580  0.30470  0.60950  1.0000
  O   O1        1.0  0.80740  0.96110  0.81440  1.0000
  O   O2        1.0  0.19260  0.46110  0.68560  1.0000
  O   O3        1.0  0.19260  0.03890  0.18560  1.0000
  O   O4        1.0  0.80740  0.53890  0.31440  1.0000
  O   O5        1.0  0.47330  0.37300  0.09710  1.0000
  O   O6        1.0  0.52670  0.87300  0.40290  1.0000
  O   O7        1.0  0.52670  0.62700  0.90290  1.0000
  O   O8        1.0  0.47330  0.12700  0.59710  1.0000
  O   O9        1.0  0.82660  0.38990  0.06400  1.0000
  O   O10       1.0  0.17340  0.88990  0.43600  1.0000
  O   O11       1.0  0.17340  0.61010  0.93600  1.0000
  O   O12       1.0  0.82660  0.11010  0.56400  1.0000
  O   O13       1.0  0.49770  0.25960  0.85250  1.0000
  O   O14       1.0  0.50230  0.75960  0.64750  1.0000
  O   O15       1.0  0.50230  0.74040  0.14750  1.0000
  O   O16       1.0  0.49770  0.24040  0.35250  1.0000
  O   O17       1.0  0.84490  0.29220  0.81550  1.0000
  O   O18       1.0  0.15510  0.79220  0.68450  1.0000
  O   O19       1.0  0.15510  0.70780  0.18450  1.0000
  O   O20       1.0  0.84490  0.20780  0.31550  1.0000
  O   O21       1.0  0.02580  0.21320  0.97850  1.0000
  O   O22       1.0  0.97420  0.71320  0.52150  1.0000
  O   O23       1.0  0.97420  0.78680  0.02150  1.0000
  O   O24       1.0  0.02580  0.28680  0.47850  1.0000
  O   O25       1.0  0.06100  0.08080  0.83630  1.0000
  O   O26       1.0  0.93900  0.58080  0.66370  1.0000
  O   O27       1.0  0.93900  0.91920  0.16370  1.0000
  O   O28       1.0  0.06100  0.41920  0.33630  1.0000
  H   H17       1.0  0.08650  0.16790  0.93840  1.0000
  H   H18       1.0  0.91350  0.66790  0.56160  1.0000
  H   H19       1.0  0.91350  0.83210  0.06160  1.0000
  H   H20       1.0  0.08650  0.33210  0.43840  1.0000
  K   K1        1.0  0.15850  0.25850  0.19290  1.0000
  K   K2        1.0  0.84150  0.75850  0.30710  1.0000
  K   K3        1.0  0.84150  0.74150  0.80710  1.0000
  K   K4        1.0  0.15850  0.24150  0.69290  1.0000
