data_image0
_chemical_formula_structural       U4O32C24H24C12H24C12H24C12H24C12H24C6H12
_chemical_formula_sum              "U4 O32 C78 H132"
_cell_length_a       13.4563
_cell_length_b       13.4563
_cell_length_c       23.2643
_cell_angle_alpha    90
_cell_angle_beta     90
_cell_angle_gamma    120

_space_group_name_H-M_alt    "P 1"
_space_group_IT_number       1

loop_
  _space_group_symop_operation_xyz
  'x, y, z'

loop_
  _atom_site_type_symbol
  _atom_site_label
  _atom_site_symmetry_multiplicity
  _atom_site_fract_x
  _atom_site_fract_y
  _atom_site_fract_z
  _atom_site_occupancy
  U   U1        1.0  0.66670  0.33330  0.53551  1.0000
  U   U2        1.0  0.66670  0.33330  0.96449  1.0000
  U   U3        1.0  0.33330  0.66670  0.46449  1.0000
  U   U4        1.0  0.33330  0.66670  0.03551  1.0000
  O   O1        1.0  0.66670  0.33330  0.61210  1.0000
  O   O2        1.0  0.66670  0.33330  0.88790  1.0000
  O   O3        1.0  0.33330  0.66670  0.38790  1.0000
  O   O4        1.0  0.33330  0.66670  0.11210  1.0000
  O   O5        1.0  0.66670  0.33330  0.45840  1.0000
  O   O6        1.0  0.66670  0.33330  0.04160  1.0000
  O   O7        1.0  0.33330  0.66670  0.54160  1.0000
  O   O8        1.0  0.33330  0.66670  0.95840  1.0000
  O   O9        1.0  0.57170  0.44650  0.53820  1.0000
  O   O10       1.0  0.55350  0.12520  0.53820  1.0000
  O   O11       1.0  0.87480  0.42830  0.53820  1.0000
  O   O12       1.0  0.55350  0.42830  0.96180  1.0000
  O   O13       1.0  0.87480  0.44650  0.96180  1.0000
  O   O14       1.0  0.57170  0.12520  0.96180  1.0000
  O   O15       1.0  0.42830  0.55350  0.46180  1.0000
  O   O16       1.0  0.44650  0.87480  0.46180  1.0000
  O   O17       1.0  0.12520  0.57170  0.46180  1.0000
  O   O18       1.0  0.44650  0.57170  0.03820  1.0000
  O   O19       1.0  0.12520  0.55350  0.03820  1.0000
  O   O20       1.0  0.42830  0.87480  0.03820  1.0000
  O   O21       1.0  0.75740  0.54490  0.53610  1.0000
  O   O22       1.0  0.45510  0.21250  0.53610  1.0000
  O   O23       1.0  0.78750  0.24260  0.53610  1.0000
  O   O24       1.0  0.45510  0.24260  0.96390  1.0000
  O   O25       1.0  0.78750  0.54490  0.96390  1.0000
  O   O26       1.0  0.75740  0.21250  0.96390  1.0000
  O   O27       1.0  0.24260  0.45510  0.46390  1.0000
  O   O28       1.0  0.54490  0.78750  0.46390  1.0000
  O   O29       1.0  0.21250  0.75740  0.46390  1.0000
  O   O30       1.0  0.54490  0.75740  0.03610  1.0000
  O   O31       1.0  0.21250  0.45510  0.03610  1.0000
  O   O32       1.0  0.24260  0.78750  0.03610  1.0000
  C   C1        1.0  0.66850  0.54810  0.54100  1.0000
  C   C2        1.0  0.45190  0.12040  0.54100  1.0000
  C   C3        1.0  0.87960  0.33150  0.54100  1.0000
  C   C4        1.0  0.45190  0.33150  0.95900  1.0000
  C   C5        1.0  0.87960  0.54810  0.95900  1.0000
  C   C6        1.0  0.66850  0.12040  0.95900  1.0000
  C   C7        1.0  0.33150  0.45190  0.45900  1.0000
  C   C8        1.0  0.54810  0.87960  0.45900  1.0000
  C   C9        1.0  0.12040  0.66850  0.45900  1.0000
  C   C10       1.0  0.54810  0.66850  0.04100  1.0000
  C   C11       1.0  0.12040  0.45190  0.04100  1.0000
  C   C12       1.0  0.33150  0.87960  0.04100  1.0000
  C   C13       1.0  0.65270  0.64910  0.54950  1.0000
  C   C14       1.0  0.35090  0.00360  0.54950  1.0000
  C   C15       1.0  0.99640  0.34730  0.54950  1.0000
  C   C16       1.0  0.35090  0.34730  0.95050  1.0000
  C   C17       1.0  0.99640  0.64910  0.95050  1.0000
  C   C18       1.0  0.65270  0.00360  0.95050  1.0000
  C   C19       1.0  0.34730  0.35090  0.45050  1.0000
  C   C20       1.0  0.64910  0.99640  0.45050  1.0000
  C   C21       1.0  0.00360  0.65270  0.45050  1.0000
  C   C22       1.0  0.64910  0.65270  0.04950  1.0000
  C   C23       1.0  0.00360  0.35090  0.04950  1.0000
  C   C24       1.0  0.34730  0.99640  0.04950  1.0000
  H   H1        1.0  0.62170  0.66430  0.51410  1.0000
  H   H2        1.0  0.33570  0.95740  0.51410  1.0000
  H   H3        1.0  0.04260  0.37830  0.51410  1.0000
  H   H4        1.0  0.33570  0.37830  0.98590  1.0000
  H   H5        1.0  0.04260  0.66430  0.98590  1.0000
  H   H6        1.0  0.62170  0.95740  0.98590  1.0000
  H   H7        1.0  0.37830  0.33570  0.48590  1.0000
  H   H8        1.0  0.66430  0.04260  0.48590  1.0000
  H   H9        1.0  0.95740  0.62170  0.48590  1.0000
  H   H10       1.0  0.66430  0.62170  0.01410  1.0000
  H   H11       1.0  0.95740  0.33570  0.01410  1.0000
  H   H12       1.0  0.37830  0.04260  0.01410  1.0000
  H   H13       1.0  0.59770  0.63390  0.58120  1.0000
  H   H14       1.0  0.36610  0.96380  0.58120  1.0000
  H   H15       1.0  0.03620  0.40230  0.58120  1.0000
  H   H16       1.0  0.36610  0.40230  0.91880  1.0000
  H   H17       1.0  0.03620  0.63390  0.91880  1.0000
  H   H18       1.0  0.59770  0.96380  0.91880  1.0000
  H   H19       1.0  0.40230  0.36610  0.41880  1.0000
  H   H20       1.0  0.63390  0.03620  0.41880  1.0000
  H   H21       1.0  0.96380  0.59770  0.41880  1.0000
  H   H22       1.0  0.63390  0.59770  0.08120  1.0000
  H   H23       1.0  0.96380  0.36610  0.08120  1.0000
  H   H24       1.0  0.40230  0.03620  0.08120  1.0000
  C   C25       1.0  0.76560  0.74960  0.56370  1.0000
  C   C26       1.0  0.25040  0.01600  0.56370  1.0000
  C   C27       1.0  0.98400  0.23440  0.56370  1.0000
  C   C28       1.0  0.25040  0.23440  0.93630  1.0000
  C   C29       1.0  0.98400  0.74960  0.93630  1.0000
  C   C30       1.0  0.76560  0.01600  0.93630  1.0000
  C   C31       1.0  0.23440  0.25040  0.43630  1.0000
  C   C32       1.0  0.74960  0.98400  0.43630  1.0000
  C   C33       1.0  0.01600  0.76560  0.43630  1.0000
  C   C34       1.0  0.74960  0.76560  0.06370  1.0000
  C   C35       1.0  0.01600  0.25040  0.06370  1.0000
  C   C36       1.0  0.23440  0.98400  0.06370  1.0000
  H   H25       1.0  0.76370  0.82180  0.55900  1.0000
  H   H26       1.0  0.17820  0.94190  0.55900  1.0000
  H   H27       1.0  0.05810  0.23630  0.55900  1.0000
  H   H28       1.0  0.17820  0.23630  0.94100  1.0000
  H   H29       1.0  0.05810  0.82180  0.94100  1.0000
  H   H30       1.0  0.76370  0.94190  0.94100  1.0000
  H   H31       1.0  0.23630  0.17820  0.44100  1.0000
  H   H32       1.0  0.82180  0.05810  0.44100  1.0000
  H   H33       1.0  0.94190  0.76370  0.44100  1.0000
  H   H34       1.0  0.82180  0.76370  0.05900  1.0000
  H   H35       1.0  0.94190  0.17820  0.05900  1.0000
  H   H36       1.0  0.23630  0.05810  0.05900  1.0000
  H   H37       1.0  0.82620  0.75240  0.53840  1.0000
  H   H38       1.0  0.24760  0.07380  0.53840  1.0000
  H   H39       1.0  0.92620  0.17380  0.53840  1.0000
  H   H40       1.0  0.24760  0.17380  0.96160  1.0000
  H   H41       1.0  0.92620  0.75240  0.96160  1.0000
  H   H42       1.0  0.82620  0.07380  0.96160  1.0000
  H   H43       1.0  0.17380  0.24760  0.46160  1.0000
  H   H44       1.0  0.75240  0.92620  0.46160  1.0000
  H   H45       1.0  0.07380  0.82620  0.46160  1.0000
  H   H46       1.0  0.75240  0.82620  0.03840  1.0000
  H   H47       1.0  0.07380  0.24760  0.03840  1.0000
  H   H48       1.0  0.17380  0.92620  0.03840  1.0000
  C   C37       1.0  0.78790  0.73330  0.62580  1.0000
  C   C38       1.0  0.26670  0.05460  0.62580  1.0000
  C   C39       1.0  0.94540  0.21210  0.62580  1.0000
  C   C40       1.0  0.26670  0.21210  0.87420  1.0000
  C   C41       1.0  0.94540  0.73330  0.87420  1.0000
  C   C42       1.0  0.78790  0.05460  0.87420  1.0000
  C   C43       1.0  0.21210  0.26670  0.37420  1.0000
  C   C44       1.0  0.73330  0.94540  0.37420  1.0000
  C   C45       1.0  0.05460  0.78790  0.37420  1.0000
  C   C46       1.0  0.73330  0.78790  0.12580  1.0000
  C   C47       1.0  0.05460  0.26670  0.12580  1.0000
  C   C48       1.0  0.21210  0.94540  0.12580  1.0000
  H   H49       1.0  0.87100  0.77670  0.63470  1.0000
  H   H50       1.0  0.22330  0.09430  0.63470  1.0000
  H   H51       1.0  0.90570  0.12900  0.63470  1.0000
  H   H52       1.0  0.22330  0.12900  0.86530  1.0000
  H   H53       1.0  0.90570  0.77670  0.86530  1.0000
  H   H54       1.0  0.87100  0.09430  0.86530  1.0000
  H   H55       1.0  0.12900  0.22330  0.36530  1.0000
  H   H56       1.0  0.77670  0.90570  0.36530  1.0000
  H   H57       1.0  0.09430  0.87100  0.36530  1.0000
  H   H58       1.0  0.77670  0.87100  0.13470  1.0000
  H   H59       1.0  0.09430  0.22330  0.13470  1.0000
  H   H60       1.0  0.12900  0.90570  0.13470  1.0000
  H   H61       1.0  0.75770  0.65120  0.63470  1.0000
  H   H62       1.0  0.34880  0.10650  0.63470  1.0000
  H   H63       1.0  0.89350  0.24230  0.63470  1.0000
  H   H64       1.0  0.34880  0.24230  0.86530  1.0000
  H   H65       1.0  0.89350  0.65120  0.86530  1.0000
  H   H66       1.0  0.75770  0.10650  0.86530  1.0000
  H   H67       1.0  0.24230  0.34880  0.36530  1.0000
  H   H68       1.0  0.65120  0.89350  0.36530  1.0000
  H   H69       1.0  0.10650  0.75770  0.36530  1.0000
  H   H70       1.0  0.65120  0.75770  0.13470  1.0000
  H   H71       1.0  0.10650  0.34880  0.13470  1.0000
  H   H72       1.0  0.24230  0.89350  0.13470  1.0000
  C   C49       1.0  0.72360  0.78060  0.65900  1.0000
  C   C50       1.0  0.21940  0.94300  0.65900  1.0000
  C   C51       1.0  0.05700  0.27640  0.65900  1.0000
  C   C52       1.0  0.21940  0.27640  0.84100  1.0000
  C   C53       1.0  0.05700  0.78060  0.84100  1.0000
  C   C54       1.0  0.72360  0.94300  0.84100  1.0000
  C   C55       1.0  0.27640  0.21940  0.34100  1.0000
  C   C56       1.0  0.78060  0.05700  0.34100  1.0000
  C   C57       1.0  0.94300  0.72360  0.34100  1.0000
  C   C58       1.0  0.78060  0.72360  0.15900  1.0000
  C   C59       1.0  0.94300  0.21940  0.15900  1.0000
  C   C60       1.0  0.27640  0.05700  0.15900  1.0000
  H   H73       1.0  0.71340  0.83630  0.63560  1.0000
  H   H74       1.0  0.16370  0.87710  0.63560  1.0000
  H   H75       1.0  0.12290  0.28660  0.63560  1.0000
  H   H76       1.0  0.16370  0.28660  0.86440  1.0000
  H   H77       1.0  0.12290  0.83630  0.86440  1.0000
  H   H78       1.0  0.71340  0.87710  0.86440  1.0000
  H   H79       1.0  0.28660  0.16370  0.36440  1.0000
  H   H80       1.0  0.83630  0.12290  0.36440  1.0000
  H   H81       1.0  0.87710  0.71340  0.36440  1.0000
  H   H82       1.0  0.83630  0.71340  0.13560  1.0000
  H   H83       1.0  0.87710  0.16370  0.13560  1.0000
  H   H84       1.0  0.28660  0.12290  0.13560  1.0000
  H   H85       1.0  0.64740  0.71830  0.67160  1.0000
  H   H86       1.0  0.28170  0.92910  0.67160  1.0000
  H   H87       1.0  0.07090  0.35260  0.67160  1.0000
  H   H88       1.0  0.28170  0.35260  0.82840  1.0000
  H   H89       1.0  0.07090  0.71830  0.82840  1.0000
  H   H90       1.0  0.64740  0.92910  0.82840  1.0000
  H   H91       1.0  0.35260  0.28170  0.32840  1.0000
  H   H92       1.0  0.71830  0.07090  0.32840  1.0000
  H   H93       1.0  0.92910  0.64740  0.32840  1.0000
  H   H94       1.0  0.71830  0.64740  0.17160  1.0000
  H   H95       1.0  0.92910  0.28170  0.17160  1.0000
  H   H96       1.0  0.35260  0.07090  0.17160  1.0000
  C   C61       1.0  0.80060  0.83790  0.70930  1.0000
  C   C62       1.0  0.16210  0.96270  0.70930  1.0000
  C   C63       1.0  0.03730  0.19940  0.70930  1.0000
  C   C64       1.0  0.16210  0.19940  0.79070  1.0000
  C   C65       1.0  0.03730  0.83790  0.79070  1.0000
  C   C66       1.0  0.80060  0.96270  0.79070  1.0000
  C   C67       1.0  0.19940  0.16210  0.29070  1.0000
  C   C68       1.0  0.83790  0.03730  0.29070  1.0000
  C   C69       1.0  0.96270  0.80060  0.29070  1.0000
  C   C70       1.0  0.83790  0.80060  0.20930  1.0000
  C   C71       1.0  0.96270  0.16210  0.20930  1.0000
  C   C72       1.0  0.19940  0.03730  0.20930  1.0000
  H   H97       1.0  0.87050  0.90900  0.69720  1.0000
  H   H98       1.0  0.09100  0.96150  0.69720  1.0000
  H   H99       1.0  0.03850  0.12950  0.69720  1.0000
  H   H100      1.0  0.09100  0.12950  0.80280  1.0000
  H   H101      1.0  0.03850  0.90900  0.80280  1.0000
  H   H102      1.0  0.87050  0.96150  0.80280  1.0000
  H   H103      1.0  0.12950  0.09100  0.30280  1.0000
  H   H104      1.0  0.90900  0.03850  0.30280  1.0000
  H   H105      1.0  0.96150  0.87050  0.30280  1.0000
  H   H106      1.0  0.90900  0.87050  0.19720  1.0000
  H   H107      1.0  0.96150  0.09100  0.19720  1.0000
  H   H108      1.0  0.12950  0.03850  0.19720  1.0000
  H   H109      1.0  0.82360  0.78610  0.72770  1.0000
  H   H110      1.0  0.21390  0.03750  0.72770  1.0000
  H   H111      1.0  0.96250  0.17640  0.72770  1.0000
  H   H112      1.0  0.21390  0.17640  0.77230  1.0000
  H   H113      1.0  0.96250  0.78610  0.77230  1.0000
  H   H114      1.0  0.82360  0.03750  0.77230  1.0000
  H   H115      1.0  0.17640  0.21390  0.27230  1.0000
  H   H116      1.0  0.78610  0.96250  0.27230  1.0000
  H   H117      1.0  0.03750  0.82360  0.27230  1.0000
  H   H118      1.0  0.78610  0.82360  0.22770  1.0000
  H   H119      1.0  0.03750  0.21390  0.22770  1.0000
  H   H120      1.0  0.17640  0.96250  0.22770  1.0000
  C   C73       1.0  0.73000  0.86480  0.75000  1.0000
  C   C74       1.0  0.13520  0.86520  0.75000  1.0000
  C   C75       1.0  0.13480  0.27000  0.75000  1.0000
  C   C76       1.0  0.27000  0.13520  0.25000  1.0000
  C   C77       1.0  0.86480  0.13480  0.25000  1.0000
  C   C78       1.0  0.86520  0.73000  0.25000  1.0000
  H   H121      1.0  0.67890  0.80910  0.77570  1.0000
  H   H122      1.0  0.19090  0.86980  0.77570  1.0000
  H   H123      1.0  0.13020  0.32110  0.77570  1.0000
  H   H124      1.0  0.19090  0.32110  0.72430  1.0000
  H   H125      1.0  0.13020  0.80910  0.72430  1.0000
  H   H126      1.0  0.67890  0.86980  0.72430  1.0000
  H   H127      1.0  0.32110  0.19090  0.22430  1.0000
  H   H128      1.0  0.80910  0.13020  0.22430  1.0000
  H   H129      1.0  0.86980  0.67890  0.22430  1.0000
  H   H130      1.0  0.80910  0.67890  0.27570  1.0000
  H   H131      1.0  0.86980  0.19090  0.27570  1.0000
  H   H132      1.0  0.32110  0.13020  0.27570  1.0000
