data_image0
_chemical_formula_structural       Bi2N4O16C20H24
_chemical_formula_sum              "Bi2 N4 O16 C20 H24"
_cell_length_a       8.618
_cell_length_b       8.914
_cell_length_c       12.256
_cell_angle_alpha    80.99
_cell_angle_beta     79.46
_cell_angle_gamma    68.77

_space_group_name_H-M_alt    "P 1"
_space_group_IT_number       1

loop_
  _space_group_symop_operation_xyz
  'x, y, z'

loop_
  _atom_site_type_symbol
  _atom_site_label
  _atom_site_symmetry_multiplicity
  _atom_site_fract_x
  _atom_site_fract_y
  _atom_site_fract_z
  _atom_site_occupancy
  Bi  Bi1       1.0  0.48680  0.22640  0.38280  1.0000
  Bi  Bi2       1.0  0.51320  0.77360  0.61720  1.0000
  N   N1        1.0  0.22290  0.22140  0.34300  1.0000
  N   N2        1.0  0.77710  0.77860  0.65700  1.0000
  N   N3        1.0  0.36070  0.47820  0.26980  1.0000
  N   N4        1.0  0.63930  0.52180  0.73020  1.0000
  O   O1        1.0  0.52510  0.08910  0.22210  1.0000
  O   O2        1.0  0.47490  0.91090  0.77790  1.0000
  O   O3        1.0  0.43850  0.92060  0.15390  1.0000
  O   O4        1.0  0.56150  0.07940  0.84610  1.0000
  O   O5        1.0  0.33550  0.09350  0.53900  1.0000
  O   O6        1.0  0.66450  0.90650  0.46100  1.0000
  O   O7        1.0  0.07600  0.14000  0.63330  1.0000
  O   O8        1.0  0.92400  0.86000  0.36670  1.0000
  O   O9        1.0  0.31810  0.44600  0.49200  1.0000
  O   O10       1.0  0.68190  0.55400  0.50800  1.0000
  O   O11       1.0  0.30800  0.69500  0.50760  1.0000
  O   O12       1.0  0.69200  0.30500  0.49240  1.0000
  O   O13       1.0  0.69430  0.29960  0.23930  1.0000
  O   O14       1.0  0.30570  0.70040  0.76070  1.0000
  O   O15       1.0  0.73700  0.43490  0.07490  1.0000
  O   O16       1.0  0.26300  0.56510  0.92510  1.0000
  C   C1        1.0  0.41790  0.02170  0.22020  1.0000
  C   C2        1.0  0.58210  0.97830  0.77980  1.0000
  C   C3        1.0  0.26100  0.06200  0.30410  1.0000
  C   C4        1.0  0.73900  0.93800  0.69590  1.0000
  C   C5        1.0  0.17600  0.15000  0.54760  1.0000
  C   C6        1.0  0.82400  0.85000  0.45240  1.0000
  C   C7        1.0  0.09690  0.24290  0.44390  1.0000
  C   C8        1.0  0.90310  0.75710  0.55610  1.0000
  C   C9        1.0  0.32900  0.58200  0.45230  1.0000
  C   C10       1.0  0.67100  0.41800  0.54770  1.0000
  C   C11       1.0  0.37300  0.60800  0.32610  1.0000
  C   C12       1.0  0.62700  0.39200  0.67390  1.0000
  C   C13       1.0  0.64400  0.40080  0.15710  1.0000
  C   C14       1.0  0.35600  0.59920  0.84290  1.0000
  C   C15       1.0  0.45600  0.47700  0.15590  1.0000
  C   C16       1.0  0.54400  0.52300  0.84410  1.0000
  C   C17       1.0  0.15700  0.35000  0.25200  1.0000
  C   C18       1.0  0.84300  0.65000  0.74800  1.0000
  C   C19       1.0  0.18000  0.50510  0.26630  1.0000
  C   C20       1.0  0.82000  0.49490  0.73370  1.0000
  H   H1        1.0  0.28000  0.98000  0.36700  1.0000
  H   H2        1.0  0.72000  0.02000  0.63300  1.0000
  H   H3        1.0  0.17000  0.06000  0.27000  1.0000
  H   H4        1.0  0.83000  0.94000  0.73000  1.0000
  H   H5        1.0  0.04800  0.35600  0.45500  1.0000
  H   H6        1.0  0.95200  0.64400  0.54500  1.0000
  H   H7        1.0  0.01100  0.20400  0.43400  1.0000
  H   H8        1.0  0.98900  0.79600  0.56600  1.0000
  H   H9        1.0  0.48000  0.61000  0.30900  1.0000
  H   H10       1.0  0.52000  0.39000  0.69100  1.0000
  H   H11       1.0  0.29000  0.71000  0.29900  1.0000
  H   H12       1.0  0.71000  0.29000  0.70100  1.0000
  H   H13       1.0  0.42000  0.42000  0.11200  1.0000
  H   H14       1.0  0.58000  0.58000  0.88800  1.0000
  H   H15       1.0  0.43000  0.59000  0.12300  1.0000
  H   H16       1.0  0.57000  0.41000  0.87700  1.0000
  H   H17       1.0  0.22000  0.31000  0.18100  1.0000
  H   H18       1.0  0.78000  0.69000  0.81900  1.0000
  H   H19       1.0  0.04000  0.37000  0.25400  1.0000
  H   H20       1.0  0.96000  0.63000  0.74600  1.0000
  H   H21       1.0  0.11000  0.55000  0.33500  1.0000
  H   H22       1.0  0.89000  0.45000  0.66500  1.0000
  H   H23       1.0  0.14000  0.58000  0.20500  1.0000
  H   H24       1.0  0.86000  0.42000  0.79500  1.0000
