data_image0
_chemical_formula_structural       C16H4C4H4C8H4C16H4C8H4C4H4C4H4C4H4C4H4C8H4C16H4C32H4C4Co12O68H8O4H8O4H8O4H8O4H8O4H8O4H8O4H8O4H8O4H8
_chemical_formula_sum              "C128 H128 Co12 O104"
_cell_length_a       23.635
_cell_length_b       7.3851
_cell_length_c       30.453
_cell_angle_alpha    90
_cell_angle_beta     121.752
_cell_angle_gamma    90

_space_group_name_H-M_alt    "P 1"
_space_group_IT_number       1

loop_
  _space_group_symop_operation_xyz
  'x, y, z'

loop_
  _atom_site_type_symbol
  _atom_site_label
  _atom_site_symmetry_multiplicity
  _atom_site_fract_x
  _atom_site_fract_y
  _atom_site_fract_z
  _atom_site_occupancy
  C   C1        1.0  0.94982  0.58260  0.80081  1.0000
  C   C2        1.0  0.05018  0.08260  0.69919  1.0000
  C   C3        1.0  0.05018  0.41740  0.19919  1.0000
  C   C4        1.0  0.94982  0.91740  0.30081  1.0000
  C   C5        1.0  0.08017  0.60560  0.67175  1.0000
  C   C6        1.0  0.91983  0.10560  0.82825  1.0000
  C   C7        1.0  0.91983  0.39440  0.32825  1.0000
  C   C8        1.0  0.08017  0.89440  0.17175  1.0000
  C   C9        1.0  0.01499  0.55790  0.71098  1.0000
  C   C10       1.0  0.98501  0.05790  0.78902  1.0000
  C   C11       1.0  0.98501  0.44210  0.28902  1.0000
  C   C12       1.0  0.01499  0.94210  0.21098  1.0000
  C   C13       1.0  0.56078  0.58430  0.80890  1.0000
  C   C14       1.0  0.43922  0.08430  0.69110  1.0000
  C   C15       1.0  0.43922  0.41570  0.19110  1.0000
  C   C16       1.0  0.56078  0.91570  0.30890  1.0000
  H   H1        1.0  0.59980  0.55080  0.81070  1.0000
  H   H2        1.0  0.40020  0.05080  0.68930  1.0000
  H   H3        1.0  0.40020  0.44920  0.18930  1.0000
  H   H4        1.0  0.59980  0.94920  0.31070  1.0000
  C   C17       1.0  0.45220  0.59340  0.66537  1.0000
  C   C18       1.0  0.54780  0.09340  0.83463  1.0000
  C   C19       1.0  0.54780  0.40660  0.33463  1.0000
  C   C20       1.0  0.45220  0.90660  0.16537  1.0000
  H   H5        1.0  0.41180  0.56840  0.66250  1.0000
  H   H6        1.0  0.58820  0.06840  0.83750  1.0000
  H   H7        1.0  0.58820  0.43160  0.33750  1.0000
  H   H8        1.0  0.41180  0.93160  0.16250  1.0000
  C   C21       1.0  0.63845  0.69450  0.67931  1.0000
  C   C22       1.0  0.36155  0.19450  0.82069  1.0000
  C   C23       1.0  0.36155  0.30550  0.32069  1.0000
  C   C24       1.0  0.63845  0.80550  0.17931  1.0000
  C   C25       1.0  0.96024  0.51720  0.66201  1.0000
  C   C26       1.0  0.03976  0.01720  0.83799  1.0000
  C   C27       1.0  0.03976  0.48280  0.33799  1.0000
  C   C28       1.0  0.96024  0.98280  0.16201  1.0000
  H   H9        1.0  0.91980  0.48760  0.65850  1.0000
  H   H10       1.0  0.08020  0.98760  0.84150  1.0000
  H   H11       1.0  0.08020  0.51240  0.34150  1.0000
  H   H12       1.0  0.91980  0.01240  0.15850  1.0000
  C   C29       1.0  0.39511  0.55230  0.56959  1.0000
  C   C30       1.0  0.60489  0.05230  0.93041  1.0000
  C   C31       1.0  0.60489  0.44770  0.43041  1.0000
  C   C32       1.0  0.39511  0.94770  0.06959  1.0000
  C   C33       1.0  0.50784  0.63170  0.71368  1.0000
  C   C34       1.0  0.49216  0.13170  0.78632  1.0000
  C   C35       1.0  0.49216  0.36830  0.28632  1.0000
  C   C36       1.0  0.50784  0.86830  0.21368  1.0000
  C   C37       1.0  0.50443  0.62920  0.76105  1.0000
  C   C38       1.0  0.49557  0.12920  0.73895  1.0000
  C   C39       1.0  0.49557  0.37080  0.23895  1.0000
  C   C40       1.0  0.50443  0.87080  0.26105  1.0000
  C   C41       1.0  0.06828  0.50980  0.80601  1.0000
  C   C42       1.0  0.93172  0.00980  0.69399  1.0000
  C   C43       1.0  0.93172  0.49020  0.19399  1.0000
  C   C44       1.0  0.06828  0.99020  0.30601  1.0000
  H   H13       1.0  0.10800  0.48330  0.80790  1.0000
  H   H14       1.0  0.89200  0.98330  0.69210  1.0000
  H   H15       1.0  0.89200  0.51670  0.19210  1.0000
  H   H16       1.0  0.10800  0.01670  0.30790  1.0000
  C   C45       1.0  0.44399  0.67670  0.80392  1.0000
  C   C46       1.0  0.55601  0.17670  0.69608  1.0000
  C   C47       1.0  0.55601  0.32330  0.19608  1.0000
  C   C48       1.0  0.44399  0.82330  0.30392  1.0000
  C   C49       1.0  0.00686  0.54310  0.84782  1.0000
  C   C50       1.0  0.99314  0.04310  0.65218  1.0000
  C   C51       1.0  0.99314  0.45690  0.15218  1.0000
  C   C52       1.0  0.00686  0.95690  0.34782  1.0000
  H   H17       1.0  0.00540  0.54060  0.87770  1.0000
  H   H18       1.0  0.99460  0.04060  0.62230  1.0000
  H   H19       1.0  0.99460  0.45940  0.12230  1.0000
  H   H20       1.0  0.00540  0.95940  0.37770  1.0000
  C   C53       1.0  0.44639  0.67380  0.75941  1.0000
  C   C54       1.0  0.55361  0.17380  0.74059  1.0000
  C   C55       1.0  0.55361  0.32620  0.24059  1.0000
  C   C56       1.0  0.44639  0.82620  0.25941  1.0000
  H   H21       1.0  0.40840  0.70240  0.72790  1.0000
  H   H22       1.0  0.59160  0.20240  0.77210  1.0000
  H   H23       1.0  0.59160  0.29760  0.27210  1.0000
  H   H24       1.0  0.40840  0.79760  0.22790  1.0000
  C   C57       1.0  0.95229  0.58760  0.75647  1.0000
  C   C58       1.0  0.04771  0.08760  0.74353  1.0000
  C   C59       1.0  0.04771  0.41240  0.24353  1.0000
  C   C60       1.0  0.95229  0.91240  0.25647  1.0000
  H   H25       1.0  0.91400  0.61530  0.72510  1.0000
  H   H26       1.0  0.08600  0.11530  0.77490  1.0000
  H   H27       1.0  0.08600  0.38470  0.27490  1.0000
  H   H28       1.0  0.91400  0.88470  0.22510  1.0000
  C   C61       1.0  0.50020  0.63560  0.85099  1.0000
  C   C62       1.0  0.49980  0.13560  0.64901  1.0000
  C   C63       1.0  0.49980  0.36440  0.14901  1.0000
  C   C64       1.0  0.50020  0.86440  0.35099  1.0000
  H   H29       1.0  0.49880  0.63890  0.88090  1.0000
  H   H30       1.0  0.50120  0.13890  0.61910  1.0000
  H   H31       1.0  0.50120  0.36110  0.11910  1.0000
  H   H32       1.0  0.49880  0.86110  0.38090  1.0000
  C   C65       1.0  0.07434  0.60430  0.71472  1.0000
  C   C66       1.0  0.92566  0.10430  0.78528  1.0000
  C   C67       1.0  0.92566  0.39570  0.28528  1.0000
  C   C68       1.0  0.07434  0.89570  0.21472  1.0000
  H   H33       1.0  0.11100  0.63520  0.74680  1.0000
  H   H34       1.0  0.88900  0.13520  0.75320  1.0000
  H   H35       1.0  0.88900  0.36480  0.25320  1.0000
  H   H36       1.0  0.11100  0.86480  0.24680  1.0000
  C   C69       1.0  0.45613  0.59210  0.62157  1.0000
  C   C70       1.0  0.54387  0.09210  0.87843  1.0000
  C   C71       1.0  0.54387  0.40790  0.37843  1.0000
  C   C72       1.0  0.45613  0.90790  0.12157  1.0000
  C   C73       1.0  0.02561  0.56340  0.62358  1.0000
  C   C74       1.0  0.97439  0.06340  0.87642  1.0000
  C   C75       1.0  0.97439  0.43660  0.37642  1.0000
  C   C76       1.0  0.02561  0.93660  0.12358  1.0000
  H   H37       1.0  0.02920  0.56400  0.59460  1.0000
  H   H38       1.0  0.97080  0.06400  0.90540  1.0000
  H   H39       1.0  0.97080  0.43600  0.40540  1.0000
  H   H40       1.0  0.02920  0.93600  0.09460  1.0000
  C   C77       1.0  0.96528  0.52000  0.61886  1.0000
  C   C78       1.0  0.03472  0.02000  0.88114  1.0000
  C   C79       1.0  0.03472  0.48000  0.38114  1.0000
  C   C80       1.0  0.96528  0.98000  0.11886  1.0000
  C   C81       1.0  0.57255  0.66650  0.67369  1.0000
  C   C82       1.0  0.42745  0.16650  0.82631  1.0000
  C   C83       1.0  0.42745  0.33350  0.32631  1.0000
  C   C84       1.0  0.57255  0.83350  0.17369  1.0000
  C   C85       1.0  0.06613  0.50740  0.85041  1.0000
  C   C86       1.0  0.93387  0.00740  0.64959  1.0000
  C   C87       1.0  0.93387  0.49260  0.14959  1.0000
  C   C88       1.0  0.06613  0.99260  0.35041  1.0000
  C   C89       1.0  0.51647  0.62740  0.62596  1.0000
  C   C90       1.0  0.48353  0.12740  0.87404  1.0000
  C   C91       1.0  0.48353  0.37260  0.37404  1.0000
  C   C92       1.0  0.51647  0.87260  0.12596  1.0000
  H   H41       1.0  0.51940  0.62480  0.59670  1.0000
  H   H42       1.0  0.48060  0.12480  0.90330  1.0000
  H   H43       1.0  0.48060  0.37520  0.40330  1.0000
  H   H44       1.0  0.51940  0.87520  0.09670  1.0000
  C   C93       1.0  0.55895  0.58940  0.85363  1.0000
  C   C94       1.0  0.44105  0.08940  0.64637  1.0000
  C   C95       1.0  0.44105  0.41060  0.14637  1.0000
  C   C96       1.0  0.55895  0.91060  0.35363  1.0000
  C   C97       1.0  0.01138  0.55180  0.75800  1.0000
  C   C98       1.0  0.98862  0.05180  0.74200  1.0000
  C   C99       1.0  0.98862  0.44820  0.24200  1.0000
  C   C100      1.0  0.01138  0.94820  0.25800  1.0000
  C   C101      1.0  0.88572  0.61970  0.79835  1.0000
  C   C102      1.0  0.11428  0.11970  0.70165  1.0000
  C   C103      1.0  0.11428  0.38030  0.20165  1.0000
  C   C104      1.0  0.88572  0.88030  0.29835  1.0000
  C   C105      1.0  0.38044  0.73330  0.80043  1.0000
  C   C106      1.0  0.61956  0.23330  0.69957  1.0000
  C   C107      1.0  0.61956  0.26670  0.19957  1.0000
  C   C108      1.0  0.38044  0.76670  0.30043  1.0000
  C   C109      1.0  0.12800  0.46860  0.90180  1.0000
  C   C110      1.0  0.87200  0.96860  0.59820  1.0000
  C   C111      1.0  0.87200  0.53140  0.09820  1.0000
  C   C112      1.0  0.12800  0.03140  0.40180  1.0000
  C   C113      1.0  0.14476  0.65460  0.67770  1.0000
  C   C114      1.0  0.85524  0.15460  0.82230  1.0000
  C   C115      1.0  0.85524  0.34540  0.32230  1.0000
  C   C116      1.0  0.14476  0.84540  0.17770  1.0000
  C   C117      1.0  0.62084  0.54980  0.90451  1.0000
  C   C118      1.0  0.37916  0.04980  0.59549  1.0000
  C   C119      1.0  0.37916  0.45020  0.09549  1.0000
  C   C120      1.0  0.62084  0.95020  0.40451  1.0000
  C   C121      1.0  0.56781  0.66920  0.71725  1.0000
  C   C122      1.0  0.43219  0.16920  0.78275  1.0000
  C   C123      1.0  0.43219  0.33080  0.28275  1.0000
  C   C124      1.0  0.56781  0.83080  0.21725  1.0000
  H   H45       1.0  0.60520  0.69650  0.74920  1.0000
  H   H46       1.0  0.39480  0.19650  0.75080  1.0000
  H   H47       1.0  0.39480  0.30350  0.25080  1.0000
  H   H48       1.0  0.60520  0.80350  0.24920  1.0000
  C   C125      1.0  0.90531  0.48110  0.56644  1.0000
  C   C126      1.0  0.09469  0.98110  0.93356  1.0000
  C   C127      1.0  0.09469  0.51890  0.43356  1.0000
  C   C128      1.0  0.90531  0.01890  0.06644  1.0000
  Co  Co1       1.0  0.75204  0.68360  0.68879  1.0000
  Co  Co2       1.0  0.24796  0.18360  0.81121  1.0000
  Co  Co3       1.0  0.24796  0.31640  0.31121  1.0000
  Co  Co4       1.0  0.75204  0.81640  0.18879  1.0000
  Co  Co5       1.0  0.75443  0.46131  0.49888  1.0000
  Co  Co6       1.0  0.24557  0.96131  0.00112  1.0000
  Co  Co7       1.0  0.24557  0.53869  0.50112  1.0000
  Co  Co8       1.0  0.75443  0.03869  0.99888  1.0000
  Co  Co9       1.0  0.25576  0.73154  0.68990  1.0000
  Co  Co10      1.0  0.74424  0.23154  0.81010  1.0000
  Co  Co11      1.0  0.74424  0.26846  0.31010  1.0000
  Co  Co12      1.0  0.25576  0.76846  0.18990  1.0000
  O   O1        1.0  0.83677  0.66410  0.75555  1.0000
  O   O2        1.0  0.16323  0.16410  0.74445  1.0000
  O   O3        1.0  0.16323  0.33590  0.24445  1.0000
  O   O4        1.0  0.83677  0.83590  0.25555  1.0000
  O   O5        1.0  0.88386  0.60230  0.83826  1.0000
  O   O6        1.0  0.11614  0.10230  0.66174  1.0000
  O   O7        1.0  0.11614  0.39770  0.16174  1.0000
  O   O8        1.0  0.88386  0.89770  0.33826  1.0000
  O   O9        1.0  0.12691  0.49680  0.94192  1.0000
  O   O10       1.0  0.87309  0.99680  0.55808  1.0000
  O   O11       1.0  0.87309  0.50320  0.05808  1.0000
  O   O12       1.0  0.12691  0.00320  0.44192  1.0000
  O   O13       1.0  0.17889  0.41460  0.90273  1.0000
  O   O14       1.0  0.82111  0.91460  0.59727  1.0000
  O   O15       1.0  0.82111  0.58540  0.09727  1.0000
  O   O16       1.0  0.17889  0.08540  0.40273  1.0000
  O   O17       1.0  0.85060  0.47090  0.56287  1.0000
  O   O18       1.0  0.14940  0.97090  0.93713  1.0000
  O   O19       1.0  0.14940  0.52910  0.43713  1.0000
  O   O20       1.0  0.85060  0.02910  0.06287  1.0000
  O   O21       1.0  0.91439  0.46480  0.52915  1.0000
  O   O22       1.0  0.08561  0.96480  0.97085  1.0000
  O   O23       1.0  0.08561  0.53520  0.47085  1.0000
  O   O24       1.0  0.91439  0.03520  0.02915  1.0000
  O   O25       1.0  0.15056  0.67230  0.63917  1.0000
  O   O26       1.0  0.84944  0.17230  0.86083  1.0000
  O   O27       1.0  0.84944  0.32770  0.36083  1.0000
  O   O28       1.0  0.15056  0.82770  0.13917  1.0000
  O   O29       1.0  0.19574  0.67680  0.72273  1.0000
  O   O30       1.0  0.80426  0.17680  0.77727  1.0000
  O   O31       1.0  0.80426  0.32320  0.27727  1.0000
  O   O32       1.0  0.19574  0.82320  0.22273  1.0000
  O   O33       1.0  0.64383  0.68880  0.64016  1.0000
  O   O34       1.0  0.35617  0.18880  0.85984  1.0000
  O   O35       1.0  0.35617  0.31120  0.35984  1.0000
  O   O36       1.0  0.64383  0.81120  0.14016  1.0000
  O   O37       1.0  0.68998  0.71870  0.72328  1.0000
  O   O38       1.0  0.31002  0.21870  0.77672  1.0000
  O   O39       1.0  0.31002  0.28130  0.27672  1.0000
  O   O40       1.0  0.68998  0.78130  0.22328  1.0000
  O   O41       1.0  0.40280  0.53580  0.53156  1.0000
  O   O42       1.0  0.59720  0.03580  0.96844  1.0000
  O   O43       1.0  0.59720  0.46420  0.46844  1.0000
  O   O44       1.0  0.40280  0.96420  0.03156  1.0000
  O   O45       1.0  0.34097  0.54190  0.56713  1.0000
  O   O46       1.0  0.65903  0.04190  0.93287  1.0000
  O   O47       1.0  0.65903  0.45810  0.43287  1.0000
  O   O48       1.0  0.34097  0.95810  0.06713  1.0000
  O   O49       1.0  0.67117  0.49250  0.90470  1.0000
  O   O50       1.0  0.32883  0.99250  0.59530  1.0000
  O   O51       1.0  0.32883  0.50750  0.09530  1.0000
  O   O52       1.0  0.67117  0.00750  0.40470  1.0000
  O   O53       1.0  0.62126  0.58280  0.94536  1.0000
  O   O54       1.0  0.37874  0.08280  0.55464  1.0000
  O   O55       1.0  0.37874  0.41720  0.05464  1.0000
  O   O56       1.0  0.62126  0.91720  0.44536  1.0000
  O   O57       1.0  0.33528  0.79700  0.75799  1.0000
  O   O58       1.0  0.66472  0.29700  0.74201  1.0000
  O   O59       1.0  0.66472  0.20300  0.24201  1.0000
  O   O60       1.0  0.33528  0.70300  0.25799  1.0000
  O   O61       1.0  0.37609  0.72240  0.83954  1.0000
  O   O62       1.0  0.62391  0.22240  0.66046  1.0000
  O   O63       1.0  0.62391  0.27760  0.16046  1.0000
  O   O64       1.0  0.37609  0.77760  0.33954  1.0000
  O   O65       1.0  0.74312  0.39880  0.68769  1.0000
  O   O66       1.0  0.25688  0.89880  0.81231  1.0000
  O   O67       1.0  0.25688  0.60120  0.31231  1.0000
  O   O68       1.0  0.74312  0.10120  0.18769  1.0000
  H   H49       1.0  0.75900  0.36040  0.71830  1.0000
  H   H50       1.0  0.24100  0.86040  0.78170  1.0000
  H   H51       1.0  0.24100  0.63960  0.28170  1.0000
  H   H52       1.0  0.75900  0.13960  0.21830  1.0000
  H   H53       1.0  0.70230  0.36980  0.66920  1.0000
  H   H54       1.0  0.29770  0.86980  0.83080  1.0000
  H   H55       1.0  0.29770  0.63020  0.33080  1.0000
  H   H56       1.0  0.70230  0.13020  0.16920  1.0000
  O   O69       1.0  0.77878  0.66040  0.63627  1.0000
  O   O70       1.0  0.22122  0.16040  0.86373  1.0000
  O   O71       1.0  0.22122  0.33960  0.36373  1.0000
  O   O72       1.0  0.77878  0.83960  0.13627  1.0000
  H   H57       1.0  0.75890  0.57030  0.61680  1.0000
  H   H58       1.0  0.24110  0.07030  0.88320  1.0000
  H   H59       1.0  0.24110  0.42970  0.38320  1.0000
  H   H60       1.0  0.75890  0.92970  0.11680  1.0000
  H   H61       1.0  0.76800  0.75640  0.61820  1.0000
  H   H62       1.0  0.23200  0.25640  0.88180  1.0000
  H   H63       1.0  0.23200  0.24360  0.38180  1.0000
  H   H64       1.0  0.76800  0.74360  0.11820  1.0000
  O   O73       1.0  0.76470  0.96250  0.68828  1.0000
  O   O74       1.0  0.23530  0.46250  0.81172  1.0000
  O   O75       1.0  0.23530  0.03750  0.31172  1.0000
  O   O76       1.0  0.76470  0.53750  0.18828  1.0000
  H   H65       1.0  0.72690  0.01290  0.66990  1.0000
  H   H66       1.0  0.27310  0.51290  0.83010  1.0000
  H   H67       1.0  0.27310  0.98710  0.33010  1.0000
  H   H68       1.0  0.72690  0.48710  0.16990  1.0000
  H   H69       1.0  0.78360  0.00270  0.71900  1.0000
  H   H70       1.0  0.21640  0.50270  0.78100  1.0000
  H   H71       1.0  0.21640  0.99730  0.28100  1.0000
  H   H72       1.0  0.78360  0.49730  0.21900  1.0000
  O   O77       1.0  0.74486  0.73720  0.50267  1.0000
  O   O78       1.0  0.25514  0.23720  0.99733  1.0000
  O   O79       1.0  0.25514  0.26280  0.49733  1.0000
  O   O80       1.0  0.74486  0.76280  0.00267  1.0000
  H   H73       1.0  0.70460  0.76240  0.49210  1.0000
  H   H74       1.0  0.29540  0.26240  0.00790  1.0000
  H   H75       1.0  0.29540  0.23760  0.50790  1.0000
  H   H76       1.0  0.70460  0.73760  0.99210  1.0000
  H   H77       1.0  0.76960  0.77190  0.53380  1.0000
  H   H78       1.0  0.23040  0.27190  0.96620  1.0000
  H   H79       1.0  0.23040  0.22810  0.46620  1.0000
  H   H80       1.0  0.76960  0.72810  0.03380  1.0000
  O   O81       1.0  0.71974  0.43360  0.55108  1.0000
  O   O82       1.0  0.28026  0.93360  0.94892  1.0000
  O   O83       1.0  0.28026  0.56640  0.44892  1.0000
  O   O84       1.0  0.71974  0.06640  0.05108  1.0000
  H   H81       1.0  0.67790  0.45000  0.53480  1.0000
  H   H82       1.0  0.32210  0.95000  0.96520  1.0000
  H   H83       1.0  0.32210  0.55000  0.46520  1.0000
  H   H84       1.0  0.67790  0.05000  0.03480  1.0000
  H   H85       1.0  0.71340  0.32420  0.55610  1.0000
  H   H86       1.0  0.28660  0.82420  0.94390  1.0000
  H   H87       1.0  0.28660  0.67580  0.44390  1.0000
  H   H88       1.0  0.71340  0.17580  0.05610  1.0000
  O   O85       1.0  0.76075  0.18600  0.49320  1.0000
  O   O86       1.0  0.23925  0.68600  0.00680  1.0000
  O   O87       1.0  0.23925  0.81400  0.50680  1.0000
  O   O88       1.0  0.76075  0.31400  0.99320  1.0000
  H   H89       1.0  0.78770  0.14240  0.52300  1.0000
  H   H90       1.0  0.21230  0.64240  0.97700  1.0000
  H   H91       1.0  0.21230  0.85760  0.47700  1.0000
  H   H92       1.0  0.78770  0.35760  0.02300  1.0000
  H   H93       1.0  0.72250  0.13950  0.48130  1.0000
  H   H94       1.0  0.27750  0.63950  0.01870  1.0000
  H   H95       1.0  0.27750  0.86050  0.51870  1.0000
  H   H96       1.0  0.72250  0.36050  0.98130  1.0000
  O   O89       1.0  0.79119  0.48990  0.44832  1.0000
  O   O90       1.0  0.20881  0.98990  0.05168  1.0000
  O   O91       1.0  0.20881  0.51010  0.55168  1.0000
  O   O92       1.0  0.79119  0.01010  0.94832  1.0000
  H   H97       1.0  0.83340  0.49150  0.46740  1.0000
  H   H98       1.0  0.16660  0.99150  0.03260  1.0000
  H   H99       1.0  0.16660  0.50850  0.53260  1.0000
  H   H100      1.0  0.83340  0.00850  0.96740  1.0000
  H   H101      1.0  0.78620  0.59810  0.43740  1.0000
  H   H102      1.0  0.21380  0.09810  0.06260  1.0000
  H   H103      1.0  0.21380  0.40190  0.56260  1.0000
  H   H104      1.0  0.78620  0.90190  0.93740  1.0000
  O   O93       1.0  0.27784  0.74810  0.63315  1.0000
  O   O94       1.0  0.72216  0.24810  0.86685  1.0000
  O   O95       1.0  0.72216  0.25190  0.36685  1.0000
  O   O96       1.0  0.27784  0.75190  0.13315  1.0000
  H   H105      1.0  0.31860  0.77630  0.64680  1.0000
  H   H106      1.0  0.68140  0.27630  0.85320  1.0000
  H   H107      1.0  0.68140  0.22370  0.35320  1.0000
  H   H108      1.0  0.31860  0.72370  0.14680  1.0000
  H   H109      1.0  0.27070  0.64620  0.61820  1.0000
  H   H110      1.0  0.72930  0.14620  0.88180  1.0000
  H   H111      1.0  0.72930  0.35380  0.38180  1.0000
  H   H112      1.0  0.27070  0.85380  0.11820  1.0000
  O   O97       1.0  0.28533  0.46030  0.69775  1.0000
  O   O98       1.0  0.71467  0.96030  0.80225  1.0000
  O   O99       1.0  0.71467  0.53970  0.30225  1.0000
  O   O100      1.0  0.28533  0.03970  0.19775  1.0000
  H   H113      1.0  0.28560  0.41390  0.72340  1.0000
  H   H114      1.0  0.71440  0.91390  0.77660  1.0000
  H   H115      1.0  0.71440  0.58610  0.27660  1.0000
  H   H116      1.0  0.28560  0.08610  0.22340  1.0000
  H   H117      1.0  0.25800  0.40300  0.67040  1.0000
  H   H118      1.0  0.74200  0.90300  0.82960  1.0000
  H   H119      1.0  0.74200  0.59700  0.32960  1.0000
  H   H120      1.0  0.25800  0.09700  0.17040  1.0000
  O   O101      1.0  0.23604  0.01410  0.68386  1.0000
  O   O102      1.0  0.76396  0.51410  0.81614  1.0000
  O   O103      1.0  0.76396  0.98590  0.31614  1.0000
  O   O104      1.0  0.23604  0.48590  0.18386  1.0000
  H   H121      1.0  0.20170  0.03700  0.65460  1.0000
  H   H122      1.0  0.79830  0.53700  0.84540  1.0000
  H   H123      1.0  0.79830  0.96300  0.34540  1.0000
  H   H124      1.0  0.20170  0.46300  0.15460  1.0000
  H   H125      1.0  0.22940  0.04630  0.70760  1.0000
  H   H126      1.0  0.77060  0.54630  0.79240  1.0000
  H   H127      1.0  0.77060  0.95370  0.29240  1.0000
  H   H128      1.0  0.22940  0.45370  0.20760  1.0000
