data_image0
_chemical_formula_structural       AgC2H2C2H2C10N2O4
_chemical_formula_sum              "Ag1 C14 H4 N2 O4"
_cell_length_a       3.7843
_cell_length_b       7.7515
_cell_length_c       10.297
_cell_angle_alpha    92.957
_cell_angle_beta     95.118
_cell_angle_gamma    92.835

_space_group_name_H-M_alt    "P 1"
_space_group_IT_number       1

loop_
  _space_group_symop_operation_xyz
  'x, y, z'

loop_
  _atom_site_type_symbol
  _atom_site_label
  _atom_site_symmetry_multiplicity
  _atom_site_fract_x
  _atom_site_fract_y
  _atom_site_fract_z
  _atom_site_occupancy
  Ag  Ag1       1.0  0.00000  0.00000  0.00000  1.0000
  C   C1        1.0  0.26930  0.69860  0.52880  1.0000
  C   C2        1.0  0.73070  0.30140  0.47120  1.0000
  H   H1        1.0  0.18050  0.59640  0.56010  1.0000
  H   H2        1.0  0.81950  0.40360  0.43990  1.0000
  C   C3        1.0  0.35690  0.69890  0.40090  1.0000
  C   C4        1.0  0.64310  0.30110  0.59910  1.0000
  H   H3        1.0  0.31540  0.59880  0.34680  1.0000
  H   H4        1.0  0.68460  0.40120  0.65320  1.0000
  C   C5        1.0  0.50570  0.84790  0.35330  1.0000
  C   C6        1.0  0.49430  0.15210  0.64670  1.0000
  C   C7        1.0  0.55320  0.00070  0.43560  1.0000
  C   C8        1.0  0.44680  0.99930  0.56440  1.0000
  C   C9        1.0  0.31050  0.84590  0.61010  1.0000
  C   C10       1.0  0.68950  0.15410  0.38990  1.0000
  C   C11       1.0  0.61330  0.85320  0.21940  1.0000
  C   C12       1.0  0.38670  0.14680  0.78060  1.0000
  C   C13       1.0  0.18820  0.84650  0.74480  1.0000
  C   C14       1.0  0.81180  0.15350  0.25520  1.0000
  N   N1        1.0  0.77390  0.00200  0.17920  1.0000
  N   N2        1.0  0.22610  0.99800  0.82080  1.0000
  O   O1        1.0  0.57660  0.72050  0.14460  1.0000
  O   O2        1.0  0.42340  0.27950  0.85540  1.0000
  O   O3        1.0  0.06520  0.71580  0.78640  1.0000
  O   O4        1.0  0.93480  0.28420  0.21360  1.0000
