data_image0
_chemical_formula_structural       U2O16C2H2C2H2C2H4C2H4C2H4C2H4C6H2
_chemical_formula_sum              "U2 O16 C18 H22"
_cell_length_a       7.7964
_cell_length_b       14.9394
_cell_length_c       13.2101
_cell_angle_alpha    90
_cell_angle_beta     101.558
_cell_angle_gamma    90

_space_group_name_H-M_alt    "P 1"
_space_group_IT_number       1

loop_
  _space_group_symop_operation_xyz
  'x, y, z'

loop_
  _atom_site_type_symbol
  _atom_site_label
  _atom_site_symmetry_multiplicity
  _atom_site_fract_x
  _atom_site_fract_y
  _atom_site_fract_z
  _atom_site_occupancy
  U   U1        1.0  0.82076  0.11792  0.13588  1.0000
  U   U2        1.0  0.17924  0.61792  0.86412  1.0000
  O   O1        1.0  0.68470  0.09910  0.22560  1.0000
  O   O2        1.0  0.31530  0.59910  0.77440  1.0000
  O   O3        1.0  0.96000  0.13540  0.04780  1.0000
  O   O4        1.0  0.04000  0.63540  0.95220  1.0000
  O   O5        1.0  0.79860  0.27860  0.16530  1.0000
  O   O6        1.0  0.20140  0.77860  0.83470  1.0000
  O   O7        1.0  0.60280  0.22090  0.04080  1.0000
  O   O8        1.0  0.39720  0.72090  0.95920  1.0000
  O   O9        1.0  0.38770  0.53220  0.99460  1.0000
  O   O10       1.0  0.61230  0.03220  0.00540  1.0000
  O   O11       1.0  0.17800  0.45700  0.89760  1.0000
  O   O12       1.0  0.82200  0.95700  0.10240  1.0000
  O   O13       1.0  0.05660  0.03650  0.25230  1.0000
  O   O14       1.0  0.94340  0.53650  0.74770  1.0000
  O   O15       1.0  0.05950  0.17980  0.27580  1.0000
  O   O16       1.0  0.94050  0.67980  0.72420  1.0000
  C   C1        1.0  0.56590  0.37690  0.08620  1.0000
  C   C2        1.0  0.43410  0.87690  0.91380  1.0000
  H   H1        1.0  0.63770  0.41990  0.05410  1.0000
  H   H2        1.0  0.36230  0.91990  0.94590  1.0000
  C   C3        1.0  0.38580  0.36930  0.01430  1.0000
  C   C4        1.0  0.61420  0.86930  0.98570  1.0000
  H   H3        1.0  0.40180  0.33050  0.95520  1.0000
  H   H4        1.0  0.59820  0.83050  0.04480  1.0000
  C   C5        1.0  0.25060  0.32140  0.06690  1.0000
  C   C6        1.0  0.74940  0.82140  0.93310  1.0000
  H   H5        1.0  0.13300  0.32620  0.02190  1.0000
  H   H6        1.0  0.86700  0.82620  0.97810  1.0000
  H   H7        1.0  0.28070  0.25710  0.07500  1.0000
  H   H8        1.0  0.71930  0.75710  0.92500  1.0000
  C   C7        1.0  0.24510  0.36100  0.17250  1.0000
  C   C8        1.0  0.75490  0.86100  0.82750  1.0000
  H   H9        1.0  0.16370  0.32590  0.20550  1.0000
  H   H10       1.0  0.83630  0.82590  0.79450  1.0000
  H   H11       1.0  0.20120  0.42330  0.16410  1.0000
  H   H12       1.0  0.79880  0.92330  0.83590  1.0000
  C   C9        1.0  0.42780  0.36020  0.24170  1.0000
  C   C10       1.0  0.57220  0.86020  0.75830  1.0000
  H   H13       1.0  0.42200  0.38580  0.31000  1.0000
  H   H14       1.0  0.57800  0.88580  0.69000  1.0000
  H   H15       1.0  0.46980  0.29770  0.25220  1.0000
  H   H16       1.0  0.53020  0.79770  0.74780  1.0000
  C   C11       1.0  0.55370  0.41340  0.19370  1.0000
  C   C12       1.0  0.44630  0.91340  0.80630  1.0000
  H   H17       1.0  0.67100  0.41150  0.23930  1.0000
  H   H18       1.0  0.32900  0.91150  0.76070  1.0000
  H   H19       1.0  0.51520  0.47670  0.18710  1.0000
  H   H20       1.0  0.48480  0.97670  0.81290  1.0000
  C   C13       1.0  0.66070  0.28690  0.09760  1.0000
  C   C14       1.0  0.33930  0.78690  0.90240  1.0000
  C   C15       1.0  0.31510  0.45820  0.96800  1.0000
  C   C16       1.0  0.68490  0.95820  0.03200  1.0000
  C   C17       1.0  0.12320  0.10720  0.29700  1.0000
  C   C18       1.0  0.87680  0.60720  0.70300  1.0000
  H   H21       1.0  0.22660  0.10260  0.34890  1.0000
  H   H22       1.0  0.77340  0.60260  0.65110  1.0000
