data_image0
_chemical_formula_structural       Cr3Na3O18C18H18O18
_chemical_formula_sum              "Cr3 Na3 O36 C18 H18"
_cell_length_a       7.9386
_cell_length_b       7.9386
_cell_length_c       21.494
_cell_angle_alpha    90
_cell_angle_beta     90
_cell_angle_gamma    120

_space_group_name_H-M_alt    "P 1"
_space_group_IT_number       1

loop_
  _space_group_symop_operation_xyz
  'x, y, z'

loop_
  _atom_site_type_symbol
  _atom_site_label
  _atom_site_symmetry_multiplicity
  _atom_site_fract_x
  _atom_site_fract_y
  _atom_site_fract_z
  _atom_site_occupancy
  Cr  Cr1       1.0  0.00000  0.00000  1.00000  1.0000
  Cr  Cr2       1.0  0.66667  0.33333  0.33333  1.0000
  Cr  Cr3       1.0  0.33333  0.66667  0.66667  1.0000
  Na  Na1       1.0  0.66670  0.33330  0.83330  1.0000
  Na  Na2       1.0  0.33337  0.66663  0.16663  1.0000
  Na  Na3       1.0  0.00003  0.99997  0.49997  1.0000
  O   O1        1.0  0.17350  0.21900  0.94598  1.0000
  O   O2        1.0  0.78100  0.95450  0.94598  1.0000
  O   O3        1.0  0.04550  0.82650  0.94598  1.0000
  O   O4        1.0  0.84017  0.55233  0.27931  1.0000
  O   O5        1.0  0.44767  0.28783  0.27931  1.0000
  O   O6        1.0  0.71217  0.15983  0.27931  1.0000
  O   O7        1.0  0.50683  0.88567  0.61265  1.0000
  O   O8        1.0  0.11433  0.62117  0.61265  1.0000
  O   O9        1.0  0.37883  0.49317  0.61265  1.0000
  O   O10       1.0  0.82650  0.78100  0.05402  1.0000
  O   O11       1.0  0.21900  0.04550  0.05402  1.0000
  O   O12       1.0  0.95450  0.17350  0.05402  1.0000
  O   O13       1.0  0.15983  0.44767  0.72069  1.0000
  O   O14       1.0  0.55233  0.71217  0.72069  1.0000
  O   O15       1.0  0.28783  0.84017  0.72069  1.0000
  O   O16       1.0  0.49317  0.11433  0.38735  1.0000
  O   O17       1.0  0.88567  0.37883  0.38735  1.0000
  O   O18       1.0  0.62117  0.50683  0.38735  1.0000
  C   C1        1.0  0.34280  0.26400  0.92965  1.0000
  C   C2        1.0  0.73600  0.07880  0.92965  1.0000
  C   C3        1.0  0.92120  0.65720  0.92965  1.0000
  C   C4        1.0  0.00947  0.59733  0.26298  1.0000
  C   C5        1.0  0.40267  0.41213  0.26298  1.0000
  C   C6        1.0  0.58787  0.99053  0.26298  1.0000
  C   C7        1.0  0.67613  0.93067  0.59632  1.0000
  C   C8        1.0  0.06933  0.74547  0.59632  1.0000
  C   C9        1.0  0.25453  0.32387  0.59632  1.0000
  C   C10       1.0  0.65720  0.73600  0.07035  1.0000
  C   C11       1.0  0.26400  0.92120  0.07035  1.0000
  C   C12       1.0  0.07880  0.34280  0.07035  1.0000
  C   C13       1.0  0.99053  0.40267  0.73702  1.0000
  C   C14       1.0  0.59733  0.58787  0.73702  1.0000
  C   C15       1.0  0.41213  0.00947  0.73702  1.0000
  C   C16       1.0  0.32387  0.06933  0.40368  1.0000
  C   C17       1.0  0.93067  0.25453  0.40368  1.0000
  C   C18       1.0  0.74547  0.67613  0.40368  1.0000
  H   H1        1.0  0.39310  0.19040  0.94640  1.0000
  H   H2        1.0  0.80960  0.20270  0.94640  1.0000
  H   H3        1.0  0.79730  0.60690  0.94640  1.0000
  H   H4        1.0  0.05977  0.52373  0.27973  1.0000
  H   H5        1.0  0.47627  0.53603  0.27973  1.0000
  H   H6        1.0  0.46397  0.94023  0.27973  1.0000
  H   H7        1.0  0.72643  0.85707  0.61307  1.0000
  H   H8        1.0  0.14293  0.86937  0.61307  1.0000
  H   H9        1.0  0.13063  0.27357  0.61307  1.0000
  H   H10       1.0  0.60690  0.80960  0.05360  1.0000
  H   H11       1.0  0.19040  0.79730  0.05360  1.0000
  H   H12       1.0  0.20270  0.39310  0.05360  1.0000
  H   H13       1.0  0.94023  0.47627  0.72027  1.0000
  H   H14       1.0  0.52373  0.46397  0.72027  1.0000
  H   H15       1.0  0.53603  0.05977  0.72027  1.0000
  H   H16       1.0  0.27357  0.14293  0.38693  1.0000
  H   H17       1.0  0.85707  0.13063  0.38693  1.0000
  H   H18       1.0  0.86937  0.72643  0.38693  1.0000
  O   O19       1.0  0.44770  0.39390  0.89418  1.0000
  O   O20       1.0  0.60610  0.05380  0.89418  1.0000
  O   O21       1.0  0.94620  0.55230  0.89418  1.0000
  O   O22       1.0  0.11437  0.72723  0.22751  1.0000
  O   O23       1.0  0.27277  0.38713  0.22751  1.0000
  O   O24       1.0  0.61287  0.88563  0.22751  1.0000
  O   O25       1.0  0.78103  0.06057  0.56085  1.0000
  O   O26       1.0  0.93943  0.72047  0.56085  1.0000
  O   O27       1.0  0.27953  0.21897  0.56085  1.0000
  O   O28       1.0  0.55230  0.60610  0.10582  1.0000
  O   O29       1.0  0.39390  0.94620  0.10582  1.0000
  O   O30       1.0  0.05380  0.44770  0.10582  1.0000
  O   O31       1.0  0.88563  0.27277  0.77249  1.0000
  O   O32       1.0  0.72723  0.61287  0.77249  1.0000
  O   O33       1.0  0.38713  0.11437  0.77249  1.0000
  O   O34       1.0  0.21897  0.93943  0.43915  1.0000
  O   O35       1.0  0.06057  0.27953  0.43915  1.0000
  O   O36       1.0  0.72047  0.78103  0.43915  1.0000
