data_image0
_chemical_formula_structural       In16O128N32C96H32C32H32C64H32C64
_chemical_formula_sum              "In16 O128 N32 C256 H96"
_cell_length_a       17.161
_cell_length_b       27.505
_cell_length_c       29.961
_cell_angle_alpha    90
_cell_angle_beta     90
_cell_angle_gamma    90

_space_group_name_H-M_alt    "P 1"
_space_group_IT_number       1

loop_
  _space_group_symop_operation_xyz
  'x, y, z'

loop_
  _atom_site_type_symbol
  _atom_site_label
  _atom_site_symmetry_multiplicity
  _atom_site_fract_x
  _atom_site_fract_y
  _atom_site_fract_z
  _atom_site_occupancy
  In  In1       1.0  0.62500  0.30691  0.12500  1.0000
  In  In2       1.0  0.12500  0.44309  0.12500  1.0000
  In  In3       1.0  0.12500  0.30691  0.62500  1.0000
  In  In4       1.0  0.62500  0.44309  0.62500  1.0000
  In  In5       1.0  0.62500  0.80691  0.62500  1.0000
  In  In6       1.0  0.12500  0.94309  0.62500  1.0000
  In  In7       1.0  0.12500  0.80691  0.12500  1.0000
  In  In8       1.0  0.62500  0.94309  0.12500  1.0000
  In  In9       1.0  0.37500  0.69309  0.87500  1.0000
  In  In10      1.0  0.87500  0.55691  0.87500  1.0000
  In  In11      1.0  0.87500  0.69309  0.37500  1.0000
  In  In12      1.0  0.37500  0.55691  0.37500  1.0000
  In  In13      1.0  0.37500  0.19309  0.37500  1.0000
  In  In14      1.0  0.87500  0.05692  0.37500  1.0000
  In  In15      1.0  0.87500  0.19309  0.87500  1.0000
  In  In16      1.0  0.37500  0.05692  0.87500  1.0000
  O   O1        1.0  0.62890  0.24876  0.07260  1.0000
  O   O2        1.0  0.12110  0.50124  0.07260  1.0000
  O   O3        1.0  0.12110  0.24876  0.67740  1.0000
  O   O4        1.0  0.62890  0.50124  0.67740  1.0000
  O   O5        1.0  0.62890  0.74876  0.57260  1.0000
  O   O6        1.0  0.12110  0.00124  0.57260  1.0000
  O   O7        1.0  0.12110  0.74876  0.17740  1.0000
  O   O8        1.0  0.62890  0.00124  0.17740  1.0000
  O   O9        1.0  0.12890  0.24876  0.57260  1.0000
  O   O10       1.0  0.62110  0.50124  0.57260  1.0000
  O   O11       1.0  0.62110  0.24876  0.17740  1.0000
  O   O12       1.0  0.12890  0.50124  0.17740  1.0000
  O   O13       1.0  0.12890  0.74876  0.07260  1.0000
  O   O14       1.0  0.62110  0.00124  0.07260  1.0000
  O   O15       1.0  0.62110  0.74876  0.67740  1.0000
  O   O16       1.0  0.12890  0.00124  0.67740  1.0000
  O   O17       1.0  0.37110  0.75124  0.92740  1.0000
  O   O18       1.0  0.87890  0.49876  0.92740  1.0000
  O   O19       1.0  0.87890  0.75124  0.32260  1.0000
  O   O20       1.0  0.37110  0.49876  0.32260  1.0000
  O   O21       1.0  0.37110  0.25124  0.42740  1.0000
  O   O22       1.0  0.87890  0.99876  0.42740  1.0000
  O   O23       1.0  0.87890  0.25124  0.82260  1.0000
  O   O24       1.0  0.37110  0.99876  0.82260  1.0000
  O   O25       1.0  0.87110  0.75124  0.42740  1.0000
  O   O26       1.0  0.37890  0.49876  0.42740  1.0000
  O   O27       1.0  0.37890  0.75124  0.82260  1.0000
  O   O28       1.0  0.87110  0.49876  0.82260  1.0000
  O   O29       1.0  0.87110  0.25124  0.92740  1.0000
  O   O30       1.0  0.37890  0.99876  0.92740  1.0000
  O   O31       1.0  0.37890  0.25124  0.32260  1.0000
  O   O32       1.0  0.87110  0.99876  0.32260  1.0000
  O   O33       1.0  0.51570  0.27473  0.09079  1.0000
  O   O34       1.0  0.23430  0.47527  0.09079  1.0000
  O   O35       1.0  0.23430  0.27473  0.65921  1.0000
  O   O36       1.0  0.51570  0.47527  0.65921  1.0000
  O   O37       1.0  0.51570  0.77473  0.59079  1.0000
  O   O38       1.0  0.23430  0.97527  0.59079  1.0000
  O   O39       1.0  0.23430  0.77473  0.15921  1.0000
  O   O40       1.0  0.51570  0.97527  0.15921  1.0000
  O   O41       1.0  0.01570  0.27473  0.59079  1.0000
  O   O42       1.0  0.73430  0.47527  0.59079  1.0000
  O   O43       1.0  0.73430  0.27473  0.15921  1.0000
  O   O44       1.0  0.01570  0.47527  0.15921  1.0000
  O   O45       1.0  0.01570  0.77473  0.09079  1.0000
  O   O46       1.0  0.73430  0.97527  0.09079  1.0000
  O   O47       1.0  0.73430  0.77473  0.65921  1.0000
  O   O48       1.0  0.01570  0.97527  0.65921  1.0000
  O   O49       1.0  0.48430  0.72527  0.90921  1.0000
  O   O50       1.0  0.76570  0.52473  0.90921  1.0000
  O   O51       1.0  0.76570  0.72527  0.34079  1.0000
  O   O52       1.0  0.48430  0.52473  0.34079  1.0000
  O   O53       1.0  0.48430  0.22527  0.40921  1.0000
  O   O54       1.0  0.76570  0.02473  0.40921  1.0000
  O   O55       1.0  0.76570  0.22527  0.84079  1.0000
  O   O56       1.0  0.48430  0.02473  0.84079  1.0000
  O   O57       1.0  0.98430  0.72527  0.40921  1.0000
  O   O58       1.0  0.26570  0.52473  0.40921  1.0000
  O   O59       1.0  0.26570  0.72527  0.84079  1.0000
  O   O60       1.0  0.98430  0.52473  0.84079  1.0000
  O   O61       1.0  0.98430  0.22527  0.90921  1.0000
  O   O62       1.0  0.26570  0.02473  0.90921  1.0000
  O   O63       1.0  0.26570  0.22527  0.34079  1.0000
  O   O64       1.0  0.98430  0.02473  0.34079  1.0000
  O   O65       1.0  0.46400  0.09270  0.91439  1.0000
  O   O66       1.0  0.28600  0.65730  0.91439  1.0000
  O   O67       1.0  0.28600  0.09270  0.83561  1.0000
  O   O68       1.0  0.46400  0.65730  0.83561  1.0000
  O   O69       1.0  0.46400  0.59270  0.41439  1.0000
  O   O70       1.0  0.28600  0.15730  0.41439  1.0000
  O   O71       1.0  0.28600  0.59270  0.33561  1.0000
  O   O72       1.0  0.46400  0.15730  0.33561  1.0000
  O   O73       1.0  0.96400  0.09270  0.41439  1.0000
  O   O74       1.0  0.78600  0.65730  0.41439  1.0000
  O   O75       1.0  0.78600  0.09270  0.33561  1.0000
  O   O76       1.0  0.96400  0.65730  0.33561  1.0000
  O   O77       1.0  0.96400  0.59270  0.91439  1.0000
  O   O78       1.0  0.78600  0.15730  0.91439  1.0000
  O   O79       1.0  0.78600  0.59270  0.83561  1.0000
  O   O80       1.0  0.96400  0.15730  0.83561  1.0000
  O   O81       1.0  0.53600  0.90730  0.08561  1.0000
  O   O82       1.0  0.71400  0.34270  0.08561  1.0000
  O   O83       1.0  0.71400  0.90730  0.16439  1.0000
  O   O84       1.0  0.53600  0.34270  0.16439  1.0000
  O   O85       1.0  0.53600  0.40730  0.58561  1.0000
  O   O86       1.0  0.71400  0.84270  0.58561  1.0000
  O   O87       1.0  0.71400  0.40730  0.66439  1.0000
  O   O88       1.0  0.53600  0.84270  0.66439  1.0000
  O   O89       1.0  0.03600  0.90730  0.58561  1.0000
  O   O90       1.0  0.21400  0.34270  0.58561  1.0000
  O   O91       1.0  0.21400  0.90730  0.66439  1.0000
  O   O92       1.0  0.03600  0.34270  0.66439  1.0000
  O   O93       1.0  0.03600  0.40730  0.08561  1.0000
  O   O94       1.0  0.21400  0.84270  0.08561  1.0000
  O   O95       1.0  0.21400  0.40730  0.16439  1.0000
  O   O96       1.0  0.03600  0.84270  0.16439  1.0000
  O   O97       1.0  0.34950  0.12020  0.93113  1.0000
  O   O98       1.0  0.40050  0.62980  0.93113  1.0000
  O   O99       1.0  0.40050  0.12020  0.81887  1.0000
  O   O100      1.0  0.34950  0.62980  0.81887  1.0000
  O   O101      1.0  0.34950  0.62020  0.43113  1.0000
  O   O102      1.0  0.40050  0.12980  0.43113  1.0000
  O   O103      1.0  0.40050  0.62020  0.31887  1.0000
  O   O104      1.0  0.34950  0.12980  0.31887  1.0000
  O   O105      1.0  0.84950  0.12020  0.43113  1.0000
  O   O106      1.0  0.90050  0.62980  0.43113  1.0000
  O   O107      1.0  0.90050  0.12020  0.31887  1.0000
  O   O108      1.0  0.84950  0.62980  0.31887  1.0000
  O   O109      1.0  0.84950  0.62020  0.93113  1.0000
  O   O110      1.0  0.90050  0.12980  0.93113  1.0000
  O   O111      1.0  0.90050  0.62020  0.81887  1.0000
  O   O112      1.0  0.84950  0.12980  0.81887  1.0000
  O   O113      1.0  0.65050  0.87980  0.06887  1.0000
  O   O114      1.0  0.59950  0.37020  0.06887  1.0000
  O   O115      1.0  0.59950  0.87980  0.18113  1.0000
  O   O116      1.0  0.65050  0.37020  0.18113  1.0000
  O   O117      1.0  0.65050  0.37980  0.56887  1.0000
  O   O118      1.0  0.59950  0.87020  0.56887  1.0000
  O   O119      1.0  0.59950  0.37980  0.68113  1.0000
  O   O120      1.0  0.65050  0.87020  0.68113  1.0000
  O   O121      1.0  0.15050  0.87980  0.56887  1.0000
  O   O122      1.0  0.09950  0.37020  0.56887  1.0000
  O   O123      1.0  0.09950  0.87980  0.68113  1.0000
  O   O124      1.0  0.15050  0.37020  0.68113  1.0000
  O   O125      1.0  0.15050  0.37980  0.06887  1.0000
  O   O126      1.0  0.09950  0.87020  0.06887  1.0000
  O   O127      1.0  0.09950  0.37980  0.18113  1.0000
  O   O128      1.0  0.15050  0.87020  0.18113  1.0000
  N   N1        1.0  0.57980  0.12000  0.95660  1.0000
  N   N2        1.0  0.17020  0.63000  0.95660  1.0000
  N   N3        1.0  0.17020  0.12000  0.79340  1.0000
  N   N4        1.0  0.57980  0.63000  0.79340  1.0000
  N   N5        1.0  0.57980  0.62000  0.45660  1.0000
  N   N6        1.0  0.17020  0.13000  0.45660  1.0000
  N   N7        1.0  0.17020  0.62000  0.29340  1.0000
  N   N8        1.0  0.57980  0.13000  0.29340  1.0000
  N   N9        1.0  0.07980  0.12000  0.45660  1.0000
  N   N10       1.0  0.67020  0.63000  0.45660  1.0000
  N   N11       1.0  0.67020  0.12000  0.29340  1.0000
  N   N12       1.0  0.07980  0.63000  0.29340  1.0000
  N   N13       1.0  0.07980  0.62000  0.95660  1.0000
  N   N14       1.0  0.67020  0.13000  0.95660  1.0000
  N   N15       1.0  0.67020  0.62000  0.79340  1.0000
  N   N16       1.0  0.07980  0.13000  0.79340  1.0000
  N   N17       1.0  0.42020  0.88000  0.04340  1.0000
  N   N18       1.0  0.82980  0.37000  0.04340  1.0000
  N   N19       1.0  0.82980  0.88000  0.20660  1.0000
  N   N20       1.0  0.42020  0.37000  0.20660  1.0000
  N   N21       1.0  0.42020  0.38000  0.54340  1.0000
  N   N22       1.0  0.82980  0.87000  0.54340  1.0000
  N   N23       1.0  0.82980  0.38000  0.70660  1.0000
  N   N24       1.0  0.42020  0.87000  0.70660  1.0000
  N   N25       1.0  0.92020  0.88000  0.54340  1.0000
  N   N26       1.0  0.32980  0.37000  0.54340  1.0000
  N   N27       1.0  0.32980  0.88000  0.70660  1.0000
  N   N28       1.0  0.92020  0.37000  0.70660  1.0000
  N   N29       1.0  0.92020  0.38000  0.04340  1.0000
  N   N30       1.0  0.32980  0.87000  0.04340  1.0000
  N   N31       1.0  0.32980  0.38000  0.20660  1.0000
  N   N32       1.0  0.92020  0.87000  0.20660  1.0000
  C   C1        1.0  0.53490  0.15110  0.97960  1.0000
  C   C2        1.0  0.21510  0.59890  0.97960  1.0000
  C   C3        1.0  0.21510  0.15110  0.77040  1.0000
  C   C4        1.0  0.53490  0.59890  0.77040  1.0000
  C   C5        1.0  0.53490  0.65110  0.47960  1.0000
  C   C6        1.0  0.21510  0.09890  0.47960  1.0000
  C   C7        1.0  0.21510  0.65110  0.27040  1.0000
  C   C8        1.0  0.53490  0.09890  0.27040  1.0000
  C   C9        1.0  0.03490  0.15110  0.47960  1.0000
  C   C10       1.0  0.71510  0.59890  0.47960  1.0000
  C   C11       1.0  0.71510  0.15110  0.27040  1.0000
  C   C12       1.0  0.03490  0.59890  0.27040  1.0000
  C   C13       1.0  0.03490  0.65110  0.97960  1.0000
  C   C14       1.0  0.71510  0.09890  0.97960  1.0000
  C   C15       1.0  0.71510  0.65110  0.77040  1.0000
  C   C16       1.0  0.03490  0.09890  0.77040  1.0000
  C   C17       1.0  0.46510  0.84890  0.02040  1.0000
  C   C18       1.0  0.78490  0.40110  0.02040  1.0000
  C   C19       1.0  0.78490  0.84890  0.22960  1.0000
  C   C20       1.0  0.46510  0.40110  0.22960  1.0000
  C   C21       1.0  0.46510  0.34890  0.52040  1.0000
  C   C22       1.0  0.78490  0.90110  0.52040  1.0000
  C   C23       1.0  0.78490  0.34890  0.72960  1.0000
  C   C24       1.0  0.46510  0.90110  0.72960  1.0000
  C   C25       1.0  0.96510  0.84890  0.52040  1.0000
  C   C26       1.0  0.28490  0.40110  0.52040  1.0000
  C   C27       1.0  0.28490  0.84890  0.72960  1.0000
  C   C28       1.0  0.96510  0.40110  0.72960  1.0000
  C   C29       1.0  0.96510  0.34890  0.02040  1.0000
  C   C30       1.0  0.28490  0.90110  0.02040  1.0000
  C   C31       1.0  0.28490  0.34890  0.22960  1.0000
  C   C32       1.0  0.96510  0.90110  0.22960  1.0000
  C   C33       1.0  0.45620  0.15250  0.97117  1.0000
  C   C34       1.0  0.29380  0.59750  0.97117  1.0000
  C   C35       1.0  0.29380  0.15250  0.77883  1.0000
  C   C36       1.0  0.45620  0.59750  0.77883  1.0000
  C   C37       1.0  0.45620  0.65250  0.47117  1.0000
  C   C38       1.0  0.29380  0.09750  0.47117  1.0000
  C   C39       1.0  0.29380  0.65250  0.27883  1.0000
  C   C40       1.0  0.45620  0.09750  0.27883  1.0000
  C   C41       1.0  0.95620  0.15250  0.47117  1.0000
  C   C42       1.0  0.79380  0.59750  0.47117  1.0000
  C   C43       1.0  0.79380  0.15250  0.27883  1.0000
  C   C44       1.0  0.95620  0.59750  0.27883  1.0000
  C   C45       1.0  0.95620  0.65250  0.97117  1.0000
  C   C46       1.0  0.79380  0.09750  0.97117  1.0000
  C   C47       1.0  0.79380  0.65250  0.77883  1.0000
  C   C48       1.0  0.95620  0.09750  0.77883  1.0000
  C   C49       1.0  0.54380  0.84750  0.02883  1.0000
  C   C50       1.0  0.70620  0.40250  0.02883  1.0000
  C   C51       1.0  0.70620  0.84750  0.22117  1.0000
  C   C52       1.0  0.54380  0.40250  0.22117  1.0000
  C   C53       1.0  0.54380  0.34750  0.52883  1.0000
  C   C54       1.0  0.70620  0.90250  0.52883  1.0000
  C   C55       1.0  0.70620  0.34750  0.72117  1.0000
  C   C56       1.0  0.54380  0.90250  0.72117  1.0000
  C   C57       1.0  0.04380  0.84750  0.52883  1.0000
  C   C58       1.0  0.20620  0.40250  0.52883  1.0000
  C   C59       1.0  0.20620  0.84750  0.72117  1.0000
  C   C60       1.0  0.04380  0.40250  0.72117  1.0000
  C   C61       1.0  0.04380  0.34750  0.02883  1.0000
  C   C62       1.0  0.20620  0.90250  0.02883  1.0000
  C   C63       1.0  0.20620  0.34750  0.22117  1.0000
  C   C64       1.0  0.04380  0.90250  0.22117  1.0000
  C   C65       1.0  0.41160  0.18600  0.99500  1.0000
  C   C66       1.0  0.33840  0.56400  0.99500  1.0000
  C   C67       1.0  0.33840  0.18600  0.75500  1.0000
  C   C68       1.0  0.41160  0.56400  0.75500  1.0000
  C   C69       1.0  0.41160  0.68600  0.49500  1.0000
  C   C70       1.0  0.33840  0.06400  0.49500  1.0000
  C   C71       1.0  0.33840  0.68600  0.25500  1.0000
  C   C72       1.0  0.41160  0.06400  0.25500  1.0000
  C   C73       1.0  0.91160  0.18600  0.49500  1.0000
  C   C74       1.0  0.83840  0.56400  0.49500  1.0000
  C   C75       1.0  0.83840  0.18600  0.25500  1.0000
  C   C76       1.0  0.91160  0.56400  0.25500  1.0000
  C   C77       1.0  0.91160  0.68600  0.99500  1.0000
  C   C78       1.0  0.83840  0.06400  0.99500  1.0000
  C   C79       1.0  0.83840  0.68600  0.75500  1.0000
  C   C80       1.0  0.91160  0.06400  0.75500  1.0000
  C   C81       1.0  0.58840  0.81400  0.00500  1.0000
  C   C82       1.0  0.66160  0.43600  0.00500  1.0000
  C   C83       1.0  0.66160  0.81400  0.24500  1.0000
  C   C84       1.0  0.58840  0.43600  0.24500  1.0000
  C   C85       1.0  0.58840  0.31400  0.50500  1.0000
  C   C86       1.0  0.66160  0.93600  0.50500  1.0000
  C   C87       1.0  0.66160  0.31400  0.74500  1.0000
  C   C88       1.0  0.58840  0.93600  0.74500  1.0000
  C   C89       1.0  0.08840  0.81400  0.50500  1.0000
  C   C90       1.0  0.16160  0.43600  0.50500  1.0000
  C   C91       1.0  0.16160  0.81400  0.74500  1.0000
  C   C92       1.0  0.08840  0.43600  0.74500  1.0000
  C   C93       1.0  0.08840  0.31400  0.00500  1.0000
  C   C94       1.0  0.16160  0.93600  0.00500  1.0000
  C   C95       1.0  0.16160  0.31400  0.24500  1.0000
  C   C96       1.0  0.08840  0.93600  0.24500  1.0000
  H   H1        1.0  0.35870  0.18830  0.98860  1.0000
  H   H2        1.0  0.39130  0.56170  0.98860  1.0000
  H   H3        1.0  0.39130  0.18830  0.76140  1.0000
  H   H4        1.0  0.35870  0.56170  0.76140  1.0000
  H   H5        1.0  0.35870  0.68830  0.48860  1.0000
  H   H6        1.0  0.39130  0.06170  0.48860  1.0000
  H   H7        1.0  0.39130  0.68830  0.26140  1.0000
  H   H8        1.0  0.35870  0.06170  0.26140  1.0000
  H   H9        1.0  0.85870  0.18830  0.48860  1.0000
  H   H10       1.0  0.89130  0.56170  0.48860  1.0000
  H   H11       1.0  0.89130  0.18830  0.26140  1.0000
  H   H12       1.0  0.85870  0.56170  0.26140  1.0000
  H   H13       1.0  0.85870  0.68830  0.98860  1.0000
  H   H14       1.0  0.89130  0.06170  0.98860  1.0000
  H   H15       1.0  0.89130  0.68830  0.76140  1.0000
  H   H16       1.0  0.85870  0.06170  0.76140  1.0000
  H   H17       1.0  0.64130  0.81170  0.01140  1.0000
  H   H18       1.0  0.60870  0.43830  0.01140  1.0000
  H   H19       1.0  0.60870  0.81170  0.23860  1.0000
  H   H20       1.0  0.64130  0.43830  0.23860  1.0000
  H   H21       1.0  0.64130  0.31170  0.51140  1.0000
  H   H22       1.0  0.60870  0.93830  0.51140  1.0000
  H   H23       1.0  0.60870  0.31170  0.73860  1.0000
  H   H24       1.0  0.64130  0.93830  0.73860  1.0000
  H   H25       1.0  0.14130  0.81170  0.51140  1.0000
  H   H26       1.0  0.10870  0.43830  0.51140  1.0000
  H   H27       1.0  0.10870  0.81170  0.73860  1.0000
  H   H28       1.0  0.14130  0.43830  0.73860  1.0000
  H   H29       1.0  0.14130  0.31170  0.01140  1.0000
  H   H30       1.0  0.10870  0.93830  0.01140  1.0000
  H   H31       1.0  0.10870  0.31170  0.23860  1.0000
  H   H32       1.0  0.14130  0.93830  0.23860  1.0000
  C   C97       1.0  0.44230  0.21570  0.02740  1.0000
  C   C98       1.0  0.30770  0.53430  0.02740  1.0000
  C   C99       1.0  0.30770  0.21570  0.72260  1.0000
  C   C100      1.0  0.44230  0.53430  0.72260  1.0000
  C   C101      1.0  0.44230  0.71570  0.52740  1.0000
  C   C102      1.0  0.30770  0.03430  0.52740  1.0000
  C   C103      1.0  0.30770  0.71570  0.22260  1.0000
  C   C104      1.0  0.44230  0.03430  0.22260  1.0000
  C   C105      1.0  0.94230  0.21570  0.52740  1.0000
  C   C106      1.0  0.80770  0.53430  0.52740  1.0000
  C   C107      1.0  0.80770  0.21570  0.22260  1.0000
  C   C108      1.0  0.94230  0.53430  0.22260  1.0000
  C   C109      1.0  0.94230  0.71570  0.02740  1.0000
  C   C110      1.0  0.80770  0.03430  0.02740  1.0000
  C   C111      1.0  0.80770  0.71570  0.72260  1.0000
  C   C112      1.0  0.94230  0.03430  0.72260  1.0000
  C   C113      1.0  0.55770  0.78430  0.97260  1.0000
  C   C114      1.0  0.69230  0.46570  0.97260  1.0000
  C   C115      1.0  0.69230  0.78430  0.27740  1.0000
  C   C116      1.0  0.55770  0.46570  0.27740  1.0000
  C   C117      1.0  0.55770  0.28430  0.47260  1.0000
  C   C118      1.0  0.69230  0.96570  0.47260  1.0000
  C   C119      1.0  0.69230  0.28430  0.77740  1.0000
  C   C120      1.0  0.55770  0.96570  0.77740  1.0000
  C   C121      1.0  0.05770  0.78430  0.47260  1.0000
  C   C122      1.0  0.19230  0.46570  0.47260  1.0000
  C   C123      1.0  0.19230  0.78430  0.77740  1.0000
  C   C124      1.0  0.05770  0.46570  0.77740  1.0000
  C   C125      1.0  0.05770  0.28430  0.97260  1.0000
  C   C126      1.0  0.19230  0.96570  0.97260  1.0000
  C   C127      1.0  0.19230  0.28430  0.27740  1.0000
  C   C128      1.0  0.05770  0.96570  0.27740  1.0000
  H   H33       1.0  0.41050  0.23660  0.04360  1.0000
  H   H34       1.0  0.33950  0.51340  0.04360  1.0000
  H   H35       1.0  0.33950  0.23660  0.70640  1.0000
  H   H36       1.0  0.41050  0.51340  0.70640  1.0000
  H   H37       1.0  0.41050  0.73660  0.54360  1.0000
  H   H38       1.0  0.33950  0.01340  0.54360  1.0000
  H   H39       1.0  0.33950  0.73660  0.20640  1.0000
  H   H40       1.0  0.41050  0.01340  0.20640  1.0000
  H   H41       1.0  0.91050  0.23660  0.54360  1.0000
  H   H42       1.0  0.83950  0.51340  0.54360  1.0000
  H   H43       1.0  0.83950  0.23660  0.20640  1.0000
  H   H44       1.0  0.91050  0.51340  0.20640  1.0000
  H   H45       1.0  0.91050  0.73660  0.04360  1.0000
  H   H46       1.0  0.83950  0.01340  0.04360  1.0000
  H   H47       1.0  0.83950  0.73660  0.70640  1.0000
  H   H48       1.0  0.91050  0.01340  0.70640  1.0000
  H   H49       1.0  0.58950  0.76340  0.95640  1.0000
  H   H50       1.0  0.66050  0.48660  0.95640  1.0000
  H   H51       1.0  0.66050  0.76340  0.29360  1.0000
  H   H52       1.0  0.58950  0.48660  0.29360  1.0000
  H   H53       1.0  0.58950  0.26340  0.45640  1.0000
  H   H54       1.0  0.66050  0.98660  0.45640  1.0000
  H   H55       1.0  0.66050  0.26340  0.79360  1.0000
  H   H56       1.0  0.58950  0.98660  0.79360  1.0000
  H   H57       1.0  0.08950  0.76340  0.45640  1.0000
  H   H58       1.0  0.16050  0.48660  0.45640  1.0000
  H   H59       1.0  0.16050  0.76340  0.79360  1.0000
  H   H60       1.0  0.08950  0.48660  0.79360  1.0000
  H   H61       1.0  0.08950  0.26340  0.95640  1.0000
  H   H62       1.0  0.16050  0.98660  0.95640  1.0000
  H   H63       1.0  0.16050  0.26340  0.29360  1.0000
  H   H64       1.0  0.08950  0.98660  0.29360  1.0000
  C   C129      1.0  0.52010  0.21379  0.03508  1.0000
  C   C130      1.0  0.22990  0.53621  0.03508  1.0000
  C   C131      1.0  0.22990  0.21379  0.71492  1.0000
  C   C132      1.0  0.52010  0.53621  0.71492  1.0000
  C   C133      1.0  0.52010  0.71379  0.53508  1.0000
  C   C134      1.0  0.22990  0.03621  0.53508  1.0000
  C   C135      1.0  0.22990  0.71379  0.21492  1.0000
  C   C136      1.0  0.52010  0.03621  0.21492  1.0000
  C   C137      1.0  0.02010  0.21379  0.53508  1.0000
  C   C138      1.0  0.72990  0.53621  0.53508  1.0000
  C   C139      1.0  0.72990  0.21379  0.21492  1.0000
  C   C140      1.0  0.02010  0.53621  0.21492  1.0000
  C   C141      1.0  0.02010  0.71379  0.03508  1.0000
  C   C142      1.0  0.72990  0.03621  0.03508  1.0000
  C   C143      1.0  0.72990  0.71379  0.71492  1.0000
  C   C144      1.0  0.02010  0.03621  0.71492  1.0000
  C   C145      1.0  0.47990  0.78621  0.96492  1.0000
  C   C146      1.0  0.77010  0.46379  0.96492  1.0000
  C   C147      1.0  0.77010  0.78621  0.28508  1.0000
  C   C148      1.0  0.47990  0.46379  0.28508  1.0000
  C   C149      1.0  0.47990  0.28621  0.46492  1.0000
  C   C150      1.0  0.77010  0.96379  0.46492  1.0000
  C   C151      1.0  0.77010  0.28621  0.78508  1.0000
  C   C152      1.0  0.47990  0.96379  0.78508  1.0000
  C   C153      1.0  0.97990  0.78621  0.46492  1.0000
  C   C154      1.0  0.27010  0.46379  0.46492  1.0000
  C   C155      1.0  0.27010  0.78621  0.78508  1.0000
  C   C156      1.0  0.97990  0.46379  0.78508  1.0000
  C   C157      1.0  0.97990  0.28621  0.96492  1.0000
  C   C158      1.0  0.27010  0.96379  0.96492  1.0000
  C   C159      1.0  0.27010  0.28621  0.28508  1.0000
  C   C160      1.0  0.97990  0.96379  0.28508  1.0000
  C   C161      1.0  0.56640  0.18230  0.01240  1.0000
  C   C162      1.0  0.18360  0.56770  0.01240  1.0000
  C   C163      1.0  0.18360  0.18230  0.73760  1.0000
  C   C164      1.0  0.56640  0.56770  0.73760  1.0000
  C   C165      1.0  0.56640  0.68230  0.51240  1.0000
  C   C166      1.0  0.18360  0.06770  0.51240  1.0000
  C   C167      1.0  0.18360  0.68230  0.23760  1.0000
  C   C168      1.0  0.56640  0.06770  0.23760  1.0000
  C   C169      1.0  0.06640  0.18230  0.51240  1.0000
  C   C170      1.0  0.68360  0.56770  0.51240  1.0000
  C   C171      1.0  0.68360  0.18230  0.23760  1.0000
  C   C172      1.0  0.06640  0.56770  0.23760  1.0000
  C   C173      1.0  0.06640  0.68230  0.01240  1.0000
  C   C174      1.0  0.68360  0.06770  0.01240  1.0000
  C   C175      1.0  0.68360  0.68230  0.73760  1.0000
  C   C176      1.0  0.06640  0.06770  0.73760  1.0000
  C   C177      1.0  0.43360  0.81770  0.98760  1.0000
  C   C178      1.0  0.81640  0.43230  0.98760  1.0000
  C   C179      1.0  0.81640  0.81770  0.26240  1.0000
  C   C180      1.0  0.43360  0.43230  0.26240  1.0000
  C   C181      1.0  0.43360  0.31770  0.48760  1.0000
  C   C182      1.0  0.81640  0.93230  0.48760  1.0000
  C   C183      1.0  0.81640  0.31770  0.76240  1.0000
  C   C184      1.0  0.43360  0.93230  0.76240  1.0000
  C   C185      1.0  0.93360  0.81770  0.48760  1.0000
  C   C186      1.0  0.31640  0.43230  0.48760  1.0000
  C   C187      1.0  0.31640  0.81770  0.76240  1.0000
  C   C188      1.0  0.93360  0.43230  0.76240  1.0000
  C   C189      1.0  0.93360  0.31770  0.98760  1.0000
  C   C190      1.0  0.31640  0.93230  0.98760  1.0000
  C   C191      1.0  0.31640  0.31770  0.26240  1.0000
  C   C192      1.0  0.93360  0.93230  0.26240  1.0000
  H   H65       1.0  0.61950  0.18130  0.01850  1.0000
  H   H66       1.0  0.13050  0.56870  0.01850  1.0000
  H   H67       1.0  0.13050  0.18130  0.73150  1.0000
  H   H68       1.0  0.61950  0.56870  0.73150  1.0000
  H   H69       1.0  0.61950  0.68130  0.51850  1.0000
  H   H70       1.0  0.13050  0.06870  0.51850  1.0000
  H   H71       1.0  0.13050  0.68130  0.23150  1.0000
  H   H72       1.0  0.61950  0.06870  0.23150  1.0000
  H   H73       1.0  0.11950  0.18130  0.51850  1.0000
  H   H74       1.0  0.63050  0.56870  0.51850  1.0000
  H   H75       1.0  0.63050  0.18130  0.23150  1.0000
  H   H76       1.0  0.11950  0.56870  0.23150  1.0000
  H   H77       1.0  0.11950  0.68130  0.01850  1.0000
  H   H78       1.0  0.63050  0.06870  0.01850  1.0000
  H   H79       1.0  0.63050  0.68130  0.73150  1.0000
  H   H80       1.0  0.11950  0.06870  0.73150  1.0000
  H   H81       1.0  0.38050  0.81870  0.98150  1.0000
  H   H82       1.0  0.86950  0.43130  0.98150  1.0000
  H   H83       1.0  0.86950  0.81870  0.26850  1.0000
  H   H84       1.0  0.38050  0.43130  0.26850  1.0000
  H   H85       1.0  0.38050  0.31870  0.48150  1.0000
  H   H86       1.0  0.86950  0.93130  0.48150  1.0000
  H   H87       1.0  0.86950  0.31870  0.76850  1.0000
  H   H88       1.0  0.38050  0.93130  0.76850  1.0000
  H   H89       1.0  0.88050  0.81870  0.48150  1.0000
  H   H90       1.0  0.36950  0.43130  0.48150  1.0000
  H   H91       1.0  0.36950  0.81870  0.76850  1.0000
  H   H92       1.0  0.88050  0.43130  0.76850  1.0000
  H   H93       1.0  0.88050  0.31870  0.98150  1.0000
  H   H94       1.0  0.36950  0.93130  0.98150  1.0000
  H   H95       1.0  0.36950  0.31870  0.26850  1.0000
  H   H96       1.0  0.88050  0.93130  0.26850  1.0000
  C   C193      1.0  0.42050  0.12038  0.93753  1.0000
  C   C194      1.0  0.32950  0.62962  0.93753  1.0000
  C   C195      1.0  0.32950  0.12038  0.81247  1.0000
  C   C196      1.0  0.42050  0.62962  0.81247  1.0000
  C   C197      1.0  0.42050  0.62038  0.43753  1.0000
  C   C198      1.0  0.32950  0.12962  0.43753  1.0000
  C   C199      1.0  0.32950  0.62038  0.31247  1.0000
  C   C200      1.0  0.42050  0.12962  0.31247  1.0000
  C   C201      1.0  0.92050  0.12038  0.43753  1.0000
  C   C202      1.0  0.82950  0.62962  0.43753  1.0000
  C   C203      1.0  0.82950  0.12038  0.31247  1.0000
  C   C204      1.0  0.92050  0.62962  0.31247  1.0000
  C   C205      1.0  0.92050  0.62038  0.93753  1.0000
  C   C206      1.0  0.82950  0.12962  0.93753  1.0000
  C   C207      1.0  0.82950  0.62038  0.81247  1.0000
  C   C208      1.0  0.92050  0.12962  0.81247  1.0000
  C   C209      1.0  0.57950  0.87962  0.06247  1.0000
  C   C210      1.0  0.67050  0.37038  0.06247  1.0000
  C   C211      1.0  0.67050  0.87962  0.18753  1.0000
  C   C212      1.0  0.57950  0.37038  0.18753  1.0000
  C   C213      1.0  0.57950  0.37962  0.56247  1.0000
  C   C214      1.0  0.67050  0.87038  0.56247  1.0000
  C   C215      1.0  0.67050  0.37962  0.68753  1.0000
  C   C216      1.0  0.57950  0.87038  0.68753  1.0000
  C   C217      1.0  0.07950  0.87962  0.56247  1.0000
  C   C218      1.0  0.17050  0.37038  0.56247  1.0000
  C   C219      1.0  0.17050  0.87962  0.68753  1.0000
  C   C220      1.0  0.07950  0.37038  0.68753  1.0000
  C   C221      1.0  0.07950  0.37962  0.06247  1.0000
  C   C222      1.0  0.17050  0.87038  0.06247  1.0000
  C   C223      1.0  0.17050  0.37962  0.18753  1.0000
  C   C224      1.0  0.07950  0.87038  0.18753  1.0000
  C   C225      1.0  0.55680  0.24740  0.06845  1.0000
  C   C226      1.0  0.19320  0.50260  0.06845  1.0000
  C   C227      1.0  0.19320  0.24740  0.68155  1.0000
  C   C228      1.0  0.55680  0.50260  0.68155  1.0000
  C   C229      1.0  0.55680  0.74740  0.56845  1.0000
  C   C230      1.0  0.19320  0.00260  0.56845  1.0000
  C   C231      1.0  0.19320  0.74740  0.18155  1.0000
  C   C232      1.0  0.55680  0.00260  0.18155  1.0000
  C   C233      1.0  0.05680  0.24740  0.56845  1.0000
  C   C234      1.0  0.69320  0.50260  0.56845  1.0000
  C   C235      1.0  0.69320  0.24740  0.18155  1.0000
  C   C236      1.0  0.05680  0.50260  0.18155  1.0000
  C   C237      1.0  0.05680  0.74740  0.06845  1.0000
  C   C238      1.0  0.69320  0.00260  0.06845  1.0000
  C   C239      1.0  0.69320  0.74740  0.68155  1.0000
  C   C240      1.0  0.05680  0.00260  0.68155  1.0000
  C   C241      1.0  0.44320  0.75260  0.93155  1.0000
  C   C242      1.0  0.80680  0.49740  0.93155  1.0000
  C   C243      1.0  0.80680  0.75260  0.31845  1.0000
  C   C244      1.0  0.44320  0.49740  0.31845  1.0000
  C   C245      1.0  0.44320  0.25260  0.43155  1.0000
  C   C246      1.0  0.80680  0.99740  0.43155  1.0000
  C   C247      1.0  0.80680  0.25260  0.81845  1.0000
  C   C248      1.0  0.44320  0.99740  0.81845  1.0000
  C   C249      1.0  0.94320  0.75260  0.43155  1.0000
  C   C250      1.0  0.30680  0.49740  0.43155  1.0000
  C   C251      1.0  0.30680  0.75260  0.81845  1.0000
  C   C252      1.0  0.94320  0.49740  0.81845  1.0000
  C   C253      1.0  0.94320  0.25260  0.93155  1.0000
  C   C254      1.0  0.30680  0.99740  0.93155  1.0000
  C   C255      1.0  0.30680  0.25260  0.31845  1.0000
  C   C256      1.0  0.94320  0.99740  0.31845  1.0000
