data_image0
_chemical_formula_structural       Mn2Cr2O24C12H12
_chemical_formula_sum              "Mn2 Cr2 O24 C12 H12"
_cell_length_a       7.8825
_cell_length_b       7.8825
_cell_length_c       14.815
_cell_angle_alpha    90
_cell_angle_beta     90
_cell_angle_gamma    120

_space_group_name_H-M_alt    "P 1"
_space_group_IT_number       1

loop_
  _space_group_symop_operation_xyz
  'x, y, z'

loop_
  _atom_site_type_symbol
  _atom_site_label
  _atom_site_symmetry_multiplicity
  _atom_site_fract_x
  _atom_site_fract_y
  _atom_site_fract_z
  _atom_site_occupancy
  Mn  Mn1       1.0  0.66670  0.33330  0.25000  1.0000
  Mn  Mn2       1.0  0.33330  0.66670  0.75000  1.0000
  Cr  Cr1       1.0  0.00000  0.00000  0.00000  1.0000
  Cr  Cr2       1.0  0.00000  0.00000  0.50000  1.0000
  O   O1        1.0  0.19430  0.21710  0.07610  1.0000
  O   O2        1.0  0.78290  0.97720  0.07610  1.0000
  O   O3        1.0  0.02280  0.80570  0.07610  1.0000
  O   O4        1.0  0.78290  0.80570  0.42390  1.0000
  O   O5        1.0  0.02280  0.21710  0.42390  1.0000
  O   O6        1.0  0.19430  0.97720  0.42390  1.0000
  O   O7        1.0  0.80570  0.78290  0.92390  1.0000
  O   O8        1.0  0.21710  0.02280  0.92390  1.0000
  O   O9        1.0  0.97720  0.19430  0.92390  1.0000
  O   O10       1.0  0.21710  0.19430  0.57610  1.0000
  O   O11       1.0  0.97720  0.78290  0.57610  1.0000
  O   O12       1.0  0.80570  0.02280  0.57610  1.0000
  O   O13       1.0  0.44530  0.35140  0.16950  1.0000
  O   O14       1.0  0.64860  0.09390  0.16950  1.0000
  O   O15       1.0  0.90610  0.55470  0.16950  1.0000
  O   O16       1.0  0.64860  0.55470  0.33050  1.0000
  O   O17       1.0  0.90610  0.35140  0.33050  1.0000
  O   O18       1.0  0.44530  0.09390  0.33050  1.0000
  O   O19       1.0  0.55470  0.64860  0.83050  1.0000
  O   O20       1.0  0.35140  0.90610  0.83050  1.0000
  O   O21       1.0  0.09390  0.44530  0.83050  1.0000
  O   O22       1.0  0.35140  0.44530  0.66950  1.0000
  O   O23       1.0  0.09390  0.64860  0.66950  1.0000
  O   O24       1.0  0.55470  0.90610  0.66950  1.0000
  C   C1        1.0  0.33300  0.22060  0.11840  1.0000
  C   C2        1.0  0.77940  0.11240  0.11840  1.0000
  C   C3        1.0  0.88760  0.66700  0.11840  1.0000
  C   C4        1.0  0.77940  0.66700  0.38160  1.0000
  C   C5        1.0  0.88760  0.22060  0.38160  1.0000
  C   C6        1.0  0.33300  0.11240  0.38160  1.0000
  C   C7        1.0  0.66700  0.77940  0.88160  1.0000
  C   C8        1.0  0.22060  0.88760  0.88160  1.0000
  C   C9        1.0  0.11240  0.33300  0.88160  1.0000
  C   C10       1.0  0.22060  0.33300  0.61840  1.0000
  C   C11       1.0  0.11240  0.77940  0.61840  1.0000
  C   C12       1.0  0.66700  0.88760  0.61840  1.0000
  H   H1        1.0  0.35300  0.11490  0.11050  1.0000
  H   H2        1.0  0.88510  0.23810  0.11050  1.0000
  H   H3        1.0  0.76190  0.64700  0.11050  1.0000
  H   H4        1.0  0.88510  0.64700  0.38950  1.0000
  H   H5        1.0  0.76190  0.11490  0.38950  1.0000
  H   H6        1.0  0.35300  0.23810  0.38950  1.0000
  H   H7        1.0  0.64700  0.88510  0.88950  1.0000
  H   H8        1.0  0.11490  0.76190  0.88950  1.0000
  H   H9        1.0  0.23810  0.35300  0.88950  1.0000
  H   H10       1.0  0.11490  0.35300  0.61050  1.0000
  H   H11       1.0  0.23810  0.88510  0.61050  1.0000
  H   H12       1.0  0.64700  0.76190  0.61050  1.0000
