data_image0
_chemical_formula_structural       Co2Cr2O24C12H12
_chemical_formula_sum              "Co2 Cr2 O24 C12 H12"
_cell_length_a       8.1491
_cell_length_b       8.1491
_cell_length_c       13.477
_cell_angle_alpha    90
_cell_angle_beta     90
_cell_angle_gamma    120

_space_group_name_H-M_alt    "P 1"
_space_group_IT_number       1

loop_
  _space_group_symop_operation_xyz
  'x, y, z'

loop_
  _atom_site_type_symbol
  _atom_site_label
  _atom_site_symmetry_multiplicity
  _atom_site_fract_x
  _atom_site_fract_y
  _atom_site_fract_z
  _atom_site_occupancy
  Co  Co1       1.0  0.33333  0.66667  0.25000  1.0000
  Co  Co2       1.0  0.66667  0.33333  0.75000  1.0000
  Cr  Cr1       1.0  1.00000  1.00000  0.00000  1.0000
  Cr  Cr2       1.0  0.00000  0.00000  0.50000  1.0000
  O   O1        1.0  0.34100  0.88440  0.16670  1.0000
  O   O2        1.0  0.11560  0.45660  0.16670  1.0000
  O   O3        1.0  0.54340  0.65900  0.16670  1.0000
  O   O4        1.0  0.11560  0.65900  0.33330  1.0000
  O   O5        1.0  0.54340  0.88440  0.33330  1.0000
  O   O6        1.0  0.34100  0.45660  0.33330  1.0000
  O   O7        1.0  0.65900  0.11560  0.83330  1.0000
  O   O8        1.0  0.88440  0.54340  0.83330  1.0000
  O   O9        1.0  0.45660  0.34100  0.83330  1.0000
  O   O10       1.0  0.88440  0.34100  0.66670  1.0000
  O   O11       1.0  0.45660  0.11560  0.66670  1.0000
  O   O12       1.0  0.65900  0.54340  0.66670  1.0000
  O   O13       1.0  0.20450  0.01160  0.08220  1.0000
  O   O14       1.0  0.98840  0.19290  0.08220  1.0000
  O   O15       1.0  0.80710  0.79550  0.08220  1.0000
  O   O16       1.0  0.98840  0.79550  0.41780  1.0000
  O   O17       1.0  0.80710  0.01160  0.41780  1.0000
  O   O18       1.0  0.20450  0.19290  0.41780  1.0000
  O   O19       1.0  0.79550  0.98840  0.91780  1.0000
  O   O20       1.0  0.01160  0.80710  0.91780  1.0000
  O   O21       1.0  0.19290  0.20450  0.91780  1.0000
  O   O22       1.0  0.01160  0.20450  0.58220  1.0000
  O   O23       1.0  0.19290  0.98840  0.58220  1.0000
  O   O24       1.0  0.79550  0.80710  0.58220  1.0000
  C   C1        1.0  0.20840  0.87320  0.11900  1.0000
  C   C2        1.0  0.12680  0.33520  0.11900  1.0000
  C   C3        1.0  0.66480  0.79160  0.11900  1.0000
  C   C4        1.0  0.12680  0.79160  0.38100  1.0000
  C   C5        1.0  0.66480  0.87320  0.38100  1.0000
  C   C6        1.0  0.20840  0.33520  0.38100  1.0000
  C   C7        1.0  0.79160  0.12680  0.88100  1.0000
  C   C8        1.0  0.87320  0.66480  0.88100  1.0000
  C   C9        1.0  0.33520  0.20840  0.88100  1.0000
  C   C10       1.0  0.87320  0.20840  0.61900  1.0000
  C   C11       1.0  0.33520  0.12680  0.61900  1.0000
  C   C12       1.0  0.79160  0.66480  0.61900  1.0000
  H   H1        1.0  0.10200  0.75600  0.10400  1.0000
  H   H2        1.0  0.24400  0.34600  0.10400  1.0000
  H   H3        1.0  0.65400  0.89800  0.10400  1.0000
  H   H4        1.0  0.24400  0.89800  0.39600  1.0000
  H   H5        1.0  0.65400  0.75600  0.39600  1.0000
  H   H6        1.0  0.10200  0.34600  0.39600  1.0000
  H   H7        1.0  0.89800  0.24400  0.89600  1.0000
  H   H8        1.0  0.75600  0.65400  0.89600  1.0000
  H   H9        1.0  0.34600  0.10200  0.89600  1.0000
  H   H10       1.0  0.75600  0.10200  0.60400  1.0000
  H   H11       1.0  0.34600  0.24400  0.60400  1.0000
  H   H12       1.0  0.89800  0.65400  0.60400  1.0000
