data_image0
_chemical_formula_structural       Fe2Cr2O24C12H12
_chemical_formula_sum              "Fe2 Cr2 O24 C12 H12"
_cell_length_a       8.2152
_cell_length_b       8.2152
_cell_length_c       13.977
_cell_angle_alpha    90
_cell_angle_beta     90
_cell_angle_gamma    120

_space_group_name_H-M_alt    "P 1"
_space_group_IT_number       1

loop_
  _space_group_symop_operation_xyz
  'x, y, z'

loop_
  _atom_site_type_symbol
  _atom_site_label
  _atom_site_symmetry_multiplicity
  _atom_site_fract_x
  _atom_site_fract_y
  _atom_site_fract_z
  _atom_site_occupancy
  Fe  Fe1       1.0  0.33333  0.66667  0.25000  1.0000
  Fe  Fe2       1.0  0.66667  0.33333  0.75000  1.0000
  Cr  Cr1       1.0  0.00000  0.00000  0.00000  1.0000
  Cr  Cr2       1.0  0.00000  0.00000  0.50000  1.0000
  O   O1        1.0  0.11370  0.66060  0.16630  1.0000
  O   O2        1.0  0.33940  0.45310  0.16630  1.0000
  O   O3        1.0  0.54690  0.88630  0.16630  1.0000
  O   O4        1.0  0.33940  0.88630  0.33370  1.0000
  O   O5        1.0  0.54690  0.66060  0.33370  1.0000
  O   O6        1.0  0.11370  0.45310  0.33370  1.0000
  O   O7        1.0  0.88630  0.33940  0.83370  1.0000
  O   O8        1.0  0.66060  0.54690  0.83370  1.0000
  O   O9        1.0  0.45310  0.11370  0.83370  1.0000
  O   O10       1.0  0.66060  0.11370  0.66630  1.0000
  O   O11       1.0  0.45310  0.33940  0.66630  1.0000
  O   O12       1.0  0.88630  0.54690  0.66630  1.0000
  O   O13       1.0  0.98720  0.79520  0.08010  1.0000
  O   O14       1.0  0.20480  0.19200  0.08010  1.0000
  O   O15       1.0  0.80800  0.01280  0.08010  1.0000
  O   O16       1.0  0.20480  0.01280  0.41990  1.0000
  O   O17       1.0  0.80800  0.79520  0.41990  1.0000
  O   O18       1.0  0.98720  0.19200  0.41990  1.0000
  O   O19       1.0  0.01280  0.20480  0.91990  1.0000
  O   O20       1.0  0.79520  0.80800  0.91990  1.0000
  O   O21       1.0  0.19200  0.98720  0.91990  1.0000
  O   O22       1.0  0.79520  0.98720  0.58010  1.0000
  O   O23       1.0  0.19200  0.20480  0.58010  1.0000
  O   O24       1.0  0.01280  0.80800  0.58010  1.0000
  C   C1        1.0  0.12530  0.79040  0.11690  1.0000
  C   C2        1.0  0.20960  0.33490  0.11690  1.0000
  C   C3        1.0  0.66510  0.87470  0.11690  1.0000
  C   C4        1.0  0.20960  0.87470  0.38310  1.0000
  C   C5        1.0  0.66510  0.79040  0.38310  1.0000
  C   C6        1.0  0.12530  0.33490  0.38310  1.0000
  C   C7        1.0  0.87470  0.20960  0.88310  1.0000
  C   C8        1.0  0.79040  0.66510  0.88310  1.0000
  C   C9        1.0  0.33490  0.12530  0.88310  1.0000
  C   C10       1.0  0.79040  0.12530  0.61690  1.0000
  C   C11       1.0  0.33490  0.20960  0.61690  1.0000
  C   C12       1.0  0.87470  0.66510  0.61690  1.0000
  H   H1        1.0  0.24458  0.89233  0.10584  1.0000
  H   H2        1.0  0.10767  0.35225  0.10584  1.0000
  H   H3        1.0  0.64775  0.75542  0.10584  1.0000
  H   H4        1.0  0.10767  0.75542  0.39416  1.0000
  H   H5        1.0  0.64775  0.89233  0.39416  1.0000
  H   H6        1.0  0.24458  0.35225  0.39416  1.0000
  H   H7        1.0  0.75542  0.10767  0.89416  1.0000
  H   H8        1.0  0.89233  0.64775  0.89416  1.0000
  H   H9        1.0  0.35225  0.24458  0.89416  1.0000
  H   H10       1.0  0.89233  0.24458  0.60584  1.0000
  H   H11       1.0  0.35225  0.10767  0.60584  1.0000
  H   H12       1.0  0.75542  0.64775  0.60584  1.0000
