data_image0
_chemical_formula_structural       Zn4Rb4C4H4C8H4C24H4C8H4C4H4C8H4C8H12C8H12O32
_chemical_formula_sum              "Zn4 Rb4 C72 H48 O32"
_cell_length_a       13.899
_cell_length_b       14.046
_cell_length_c       12.728
_cell_angle_alpha    90
_cell_angle_beta     111.444
_cell_angle_gamma    90

_space_group_name_H-M_alt    "P 1"
_space_group_IT_number       1

loop_
  _space_group_symop_operation_xyz
  'x, y, z'

loop_
  _atom_site_type_symbol
  _atom_site_label
  _atom_site_symmetry_multiplicity
  _atom_site_fract_x
  _atom_site_fract_y
  _atom_site_fract_z
  _atom_site_occupancy
  Zn  Zn1       1.0  0.50000  0.62105  0.25000  1.0000
  Zn  Zn2       1.0  0.50000  0.37895  0.75000  1.0000
  Zn  Zn3       1.0  0.00000  0.13699  0.25000  1.0000
  Zn  Zn4       1.0  0.00000  0.86301  0.75000  1.0000
  Rb  Rb1       1.0  0.50000  0.50000  0.00000  1.0000
  Rb  Rb2       1.0  0.50000  0.50000  0.50000  1.0000
  Rb  Rb3       1.0  0.00000  0.00000  0.50000  1.0000
  Rb  Rb4       1.0  0.00000  0.00000  0.00000  1.0000
  C   C1        1.0  0.75784  0.42554  0.51780  1.0000
  C   C2        1.0  0.24216  0.42554  0.98220  1.0000
  C   C3        1.0  0.24216  0.57446  0.48220  1.0000
  C   C4        1.0  0.75784  0.57446  0.01780  1.0000
  H   H1        1.0  0.71760  0.46680  0.54170  1.0000
  H   H2        1.0  0.28240  0.46680  0.95830  1.0000
  H   H3        1.0  0.28240  0.53320  0.45830  1.0000
  H   H4        1.0  0.71760  0.53320  0.04170  1.0000
  C   C5        1.0  0.84280  0.00641  0.18860  1.0000
  C   C6        1.0  0.15720  0.00641  0.31140  1.0000
  C   C7        1.0  0.15720  0.99359  0.81140  1.0000
  C   C8        1.0  0.84280  0.99359  0.68860  1.0000
  C   C9        1.0  0.73970  0.92679  0.00210  1.0000
  C   C10       1.0  0.26030  0.92679  0.49790  1.0000
  C   C11       1.0  0.26030  0.07321  0.99790  1.0000
  C   C12       1.0  0.73970  0.07321  0.50210  1.0000
  H   H5        1.0  0.77100  0.96670  0.96580  1.0000
  H   H6        1.0  0.22900  0.96670  0.53420  1.0000
  H   H7        1.0  0.22900  0.03330  0.03420  1.0000
  H   H8        1.0  0.77100  0.03330  0.46580  1.0000
  C   C13       1.0  0.74112  0.42031  0.40340  1.0000
  C   C14       1.0  0.25888  0.42031  0.09660  1.0000
  C   C15       1.0  0.25888  0.57969  0.59660  1.0000
  C   C16       1.0  0.74112  0.57969  0.90340  1.0000
  C   C17       1.0  0.65796  0.47728  0.31590  1.0000
  C   C18       1.0  0.34204  0.47728  0.18410  1.0000
  C   C19       1.0  0.34204  0.52272  0.68410  1.0000
  C   C20       1.0  0.65796  0.52272  0.81590  1.0000
  C   C21       1.0  0.60120  0.74260  0.17420  1.0000
  C   C22       1.0  0.39880  0.74260  0.32580  1.0000
  C   C23       1.0  0.39880  0.25740  0.82580  1.0000
  C   C24       1.0  0.60120  0.25740  0.67420  1.0000
  C   C25       1.0  0.76440  0.93605  0.11740  1.0000
  C   C26       1.0  0.23560  0.93605  0.38260  1.0000
  C   C27       1.0  0.23560  0.06395  0.88260  1.0000
  C   C28       1.0  0.76440  0.06395  0.61740  1.0000
  C   C29       1.0  0.66910  0.85906  0.93960  1.0000
  C   C30       1.0  0.33090  0.85906  0.56040  1.0000
  C   C31       1.0  0.33090  0.14094  0.06040  1.0000
  C   C32       1.0  0.66910  0.14094  0.43960  1.0000
  C   C33       1.0  0.80200  0.35940  0.36790  1.0000
  C   C34       1.0  0.19800  0.35940  0.13210  1.0000
  C   C35       1.0  0.19800  0.64060  0.63210  1.0000
  C   C36       1.0  0.80200  0.64060  0.86790  1.0000
  H   H9        1.0  0.79150  0.35510  0.29160  1.0000
  H   H10       1.0  0.20850  0.35510  0.20840  1.0000
  H   H11       1.0  0.20850  0.64490  0.70840  1.0000
  H   H12       1.0  0.79150  0.64490  0.79160  1.0000
  C   C37       1.0  0.83280  0.37108  0.59730  1.0000
  C   C38       1.0  0.16720  0.37108  0.90270  1.0000
  C   C39       1.0  0.16720  0.62892  0.40270  1.0000
  C   C40       1.0  0.83280  0.62892  0.09730  1.0000
  C   C41       1.0  0.71780  0.87557  0.17140  1.0000
  C   C42       1.0  0.28220  0.87557  0.32860  1.0000
  C   C43       1.0  0.28220  0.12443  0.82860  1.0000
  C   C44       1.0  0.71780  0.12443  0.67140  1.0000
  H   H13       1.0  0.73410  0.88120  0.24880  1.0000
  H   H14       1.0  0.26590  0.88120  0.25120  1.0000
  H   H15       1.0  0.26590  0.11880  0.75120  1.0000
  H   H16       1.0  0.73410  0.11880  0.74880  1.0000
  C   C45       1.0  0.62375  0.79982  0.99600  1.0000
  C   C46       1.0  0.37625  0.79982  0.50400  1.0000
  C   C47       1.0  0.37625  0.20018  0.00400  1.0000
  C   C48       1.0  0.62375  0.20018  0.49600  1.0000
  H   H17       1.0  0.57640  0.75400  0.95540  1.0000
  H   H18       1.0  0.42360  0.75400  0.54460  1.0000
  H   H19       1.0  0.42360  0.24600  0.04460  1.0000
  H   H20       1.0  0.57640  0.24600  0.45540  1.0000
  C   C49       1.0  0.64772  0.80756  0.11160  1.0000
  C   C50       1.0  0.35228  0.80756  0.38840  1.0000
  C   C51       1.0  0.35228  0.19244  0.88840  1.0000
  C   C52       1.0  0.64772  0.19244  0.61160  1.0000
  C   C53       1.0  0.89250  0.31039  0.55950  1.0000
  C   C54       1.0  0.10750  0.31039  0.94050  1.0000
  C   C55       1.0  0.10750  0.68961  0.44050  1.0000
  C   C56       1.0  0.89250  0.68961  0.05950  1.0000
  H   H21       1.0  0.94290  0.27280  0.61120  1.0000
  H   H22       1.0  0.05710  0.27280  0.88880  1.0000
  H   H23       1.0  0.05710  0.72720  0.38880  1.0000
  H   H24       1.0  0.94290  0.72720  0.11120  1.0000
  C   C57       1.0  0.87797  0.30516  0.44550  1.0000
  C   C58       1.0  0.12203  0.30516  0.05450  1.0000
  C   C59       1.0  0.12203  0.69484  0.55450  1.0000
  C   C60       1.0  0.87797  0.69484  0.94550  1.0000
  C   C61       1.0  0.84860  0.37730  0.72080  1.0000
  C   C62       1.0  0.15140  0.37730  0.77920  1.0000
  C   C63       1.0  0.15140  0.62270  0.27920  1.0000
  C   C64       1.0  0.84860  0.62270  0.22080  1.0000
  H   H25       1.0  0.90350  0.33520  0.76320  1.0000
  H   H26       1.0  0.09650  0.33520  0.73680  1.0000
  H   H27       1.0  0.09650  0.66480  0.23680  1.0000
  H   H28       1.0  0.90350  0.66480  0.26320  1.0000
  H   H29       1.0  0.78600  0.35920  0.73110  1.0000
  H   H30       1.0  0.21400  0.35920  0.76890  1.0000
  H   H31       1.0  0.21400  0.64080  0.26890  1.0000
  H   H32       1.0  0.78600  0.64080  0.23110  1.0000
  H   H33       1.0  0.86640  0.44150  0.74670  1.0000
  H   H34       1.0  0.13360  0.44150  0.75330  1.0000
  H   H35       1.0  0.13360  0.55850  0.25330  1.0000
  H   H36       1.0  0.86640  0.55850  0.24670  1.0000
  C   C65       1.0  0.94550  0.23949  0.40910  1.0000
  C   C66       1.0  0.05450  0.23949  0.09090  1.0000
  C   C67       1.0  0.05450  0.76051  0.59090  1.0000
  C   C68       1.0  0.94550  0.76051  0.90910  1.0000
  C   C69       1.0  0.64480  0.84950  0.81470  1.0000
  C   C70       1.0  0.35520  0.84950  0.68530  1.0000
  C   C71       1.0  0.35520  0.15050  0.18530  1.0000
  C   C72       1.0  0.64480  0.15050  0.31470  1.0000
  H   H37       1.0  0.70800  0.84410  0.80090  1.0000
  H   H38       1.0  0.29200  0.84410  0.69910  1.0000
  H   H39       1.0  0.29200  0.15590  0.19910  1.0000
  H   H40       1.0  0.70800  0.15590  0.30090  1.0000
  H   H41       1.0  0.60740  0.90470  0.77660  1.0000
  H   H42       1.0  0.39260  0.90470  0.72340  1.0000
  H   H43       1.0  0.39260  0.09530  0.22340  1.0000
  H   H44       1.0  0.60740  0.09530  0.27660  1.0000
  H   H45       1.0  0.60350  0.79360  0.78710  1.0000
  H   H46       1.0  0.39650  0.79360  0.71290  1.0000
  H   H47       1.0  0.39650  0.20640  0.21290  1.0000
  H   H48       1.0  0.60350  0.20640  0.28710  1.0000
  O   O1        1.0  0.60947  0.53747  0.35424  1.0000
  O   O2        1.0  0.39053  0.53747  0.14576  1.0000
  O   O3        1.0  0.39053  0.46253  0.64576  1.0000
  O   O4        1.0  0.60947  0.46253  0.85424  1.0000
  O   O5        1.0  0.88958  0.05803  0.13825  1.0000
  O   O6        1.0  0.11042  0.05803  0.36175  1.0000
  O   O7        1.0  0.11042  0.94197  0.86175  1.0000
  O   O8        1.0  0.88958  0.94197  0.63825  1.0000
  O   O9        1.0  0.85875  0.01304  0.28956  1.0000
  O   O10       1.0  0.14125  0.01304  0.21044  1.0000
  O   O11       1.0  0.14125  0.98696  0.71044  1.0000
  O   O12       1.0  0.85875  0.98696  0.78956  1.0000
  O   O13       1.0  0.64165  0.46479  0.21561  1.0000
  O   O14       1.0  0.35835  0.46479  0.28439  1.0000
  O   O15       1.0  0.35835  0.53521  0.78439  1.0000
  O   O16       1.0  0.64165  0.53521  0.71561  1.0000
  O   O17       1.0  0.92077  0.22927  0.30348  1.0000
  O   O18       1.0  0.07923  0.22927  0.19652  1.0000
  O   O19       1.0  0.07923  0.77073  0.69652  1.0000
  O   O20       1.0  0.92077  0.77073  0.80348  1.0000
  O   O21       1.0  0.53613  0.68091  0.11994  1.0000
  O   O22       1.0  0.46387  0.68091  0.38006  1.0000
  O   O23       1.0  0.46387  0.31909  0.88006  1.0000
  O   O24       1.0  0.53613  0.31909  0.61994  1.0000
  O   O25       1.0  0.62754  0.75009  0.27861  1.0000
  O   O26       1.0  0.37246  0.75009  0.22139  1.0000
  O   O27       1.0  0.37246  0.24991  0.72139  1.0000
  O   O28       1.0  0.62754  0.24991  0.77861  1.0000
  O   O29       1.0  0.02012  0.19992  0.48075  1.0000
  O   O30       1.0  0.97988  0.19992  0.01925  1.0000
  O   O31       1.0  0.97988  0.80008  0.51925  1.0000
  O   O32       1.0  0.02012  0.80008  0.98075  1.0000
