data_image0
_chemical_formula_structural       Cd2S2O10N2O2C4H2C8H2C2H2C2H2C2H2C2H2C2H2C2H4C4O4H4
_chemical_formula_sum              "Cd2 S2 O16 N2 C28 H22"
_cell_length_a       10.208
_cell_length_b       11.668
_cell_length_c       12.146
_cell_angle_alpha    118.144
_cell_angle_beta     100.401
_cell_angle_gamma    96.804

_space_group_name_H-M_alt    "P 1"
_space_group_IT_number       1

loop_
  _space_group_symop_operation_xyz
  'x, y, z'

loop_
  _atom_site_type_symbol
  _atom_site_label
  _atom_site_symmetry_multiplicity
  _atom_site_fract_x
  _atom_site_fract_y
  _atom_site_fract_z
  _atom_site_occupancy
  Cd  Cd1       1.0  0.71866  0.16784  0.22597  1.0000
  Cd  Cd2       1.0  0.28134  0.83216  0.77403  1.0000
  S   S1        1.0  0.33979  0.72585  0.46171  1.0000
  S   S2        1.0  0.66021  0.27415  0.53829  1.0000
  O   O1        1.0  0.46702  0.14947  0.18251  1.0000
  O   O2        1.0  0.53298  0.85053  0.81749  1.0000
  O   O3        1.0  0.97620  0.13624  0.21420  1.0000
  O   O4        1.0  0.02380  0.86376  0.78580  1.0000
  O   O5        1.0  0.29630  0.75076  0.35567  1.0000
  O   O6        1.0  0.70370  0.24924  0.64433  1.0000
  O   O7        1.0  0.25590  0.77158  0.55193  1.0000
  O   O8        1.0  0.74410  0.22842  0.44807  1.0000
  O   O9        1.0  0.91051  0.32443  0.29180  1.0000
  O   O10       1.0  0.08949  0.67557  0.70820  1.0000
  N   N1        1.0  0.67360  0.95275  0.17900  1.0000
  N   N2        1.0  0.32640  0.04725  0.82100  1.0000
  O   O11       1.0  0.48540  0.77444  0.52200  1.0000
  O   O12       1.0  0.51460  0.22556  0.47800  1.0000
  C   C1        1.0  0.30520  0.54880  0.38710  1.0000
  C   C2        1.0  0.69480  0.45120  0.61290  1.0000
  C   C3        1.0  0.68710  0.72680  0.05480  1.0000
  C   C4        1.0  0.31290  0.27320  0.94520  1.0000
  H   H1        1.0  0.72371  0.66520  0.99383  1.0000
  H   H2        1.0  0.27629  0.33480  0.00617  1.0000
  C   C5        1.0  0.37840  0.34410  0.28060  1.0000
  C   C6        1.0  0.62160  0.65590  0.71940  1.0000
  C   C7        1.0  0.49200  0.27440  0.24370  1.0000
  C   C8        1.0  0.50800  0.72560  0.75630  1.0000
  C   C9        1.0  0.14460  0.33740  0.29350  1.0000
  C   C10       1.0  0.85540  0.66260  0.70650  1.0000
  C   C11       1.0  0.54750  0.78060  0.19780  1.0000
  C   C12       1.0  0.45250  0.21940  0.80220  1.0000
  H   H3        1.0  0.48741  0.75705  0.23682  1.0000
  H   H4        1.0  0.51259  0.24295  0.76318  1.0000
  C   C13       1.0  0.17460  0.47690  0.36260  1.0000
  C   C14       1.0  0.82540  0.52310  0.63740  1.0000
  H   H5        1.0  0.10746  0.52140  0.39209  1.0000
  H   H6        1.0  0.89254  0.47860  0.60791  1.0000
  C   C15       1.0  0.24710  0.27200  0.25330  1.0000
  C   C16       1.0  0.75290  0.72800  0.74670  1.0000
  H   H7        1.0  0.22729  0.17908  0.20765  1.0000
  H   H8        1.0  0.77271  0.82092  0.79235  1.0000
  C   C17       1.0  0.40670  0.48330  0.34620  1.0000
  C   C18       1.0  0.59330  0.51670  0.65380  1.0000
  H   H9        1.0  0.49373  0.53234  0.36263  1.0000
  H   H10       1.0  0.50627  0.46766  0.63737  1.0000
  C   C19       1.0  0.58720  0.91230  0.22990  1.0000
  C   C20       1.0  0.41280  0.08770  0.77010  1.0000
  H   H11       1.0  0.55162  0.97567  0.29022  1.0000
  H   H12       1.0  0.44838  0.02433  0.70978  1.0000
  C   C21       1.0  0.72290  0.86040  0.09210  1.0000
  C   C22       1.0  0.27710  0.13960  0.90790  1.0000
  H   H13       1.0  0.78360  0.88682  0.05521  1.0000
  H   H14       1.0  0.21640  0.11318  0.94479  1.0000
  C   C23       1.0  0.55300  0.53860  0.06600  1.0000
  C   C24       1.0  0.44700  0.46140  0.93400  1.0000
  H   H15       1.0  0.51413  0.53076  0.13004  1.0000
  H   H16       1.0  0.48587  0.46924  0.86996  1.0000
  H   H17       1.0  0.63222  0.49983  0.06127  1.0000
  H   H18       1.0  0.36778  0.50017  0.93873  1.0000
  C   C25       1.0  0.00160  0.25920  0.26380  1.0000
  C   C26       1.0  0.99840  0.74080  0.73620  1.0000
  C   C27       1.0  0.59730  0.68440  0.10760  1.0000
  C   C28       1.0  0.40270  0.31560  0.89240  1.0000
  O   O13       1.0  0.61093  0.34559  0.28030  1.0000
  O   O14       1.0  0.38907  0.65441  0.71970  1.0000
  O   O15       1.0  0.69720  0.09820  0.00955  1.0000
  O   O16       1.0  0.30280  0.90180  0.99045  1.0000
  H   H19       1.0  0.66695  0.15489  0.99070  1.0000
  H   H20       1.0  0.33305  0.84511  0.00930  1.0000
  H   H21       1.0  0.64031  0.02079  0.96072  1.0000
  H   H22       1.0  0.35969  0.97921  0.03928  1.0000
