data_image0
_chemical_formula_structural       Nd2O2N2C4H2Nd2O2N2C2H2Sr2O2N2C2H2O2N2C2H2O2C2N2O2C2N2O2C2O2C2O2C2H2O2C2H2O2C2H2O2C2O2C2O2C2O2C2O2C2H2O2C2H2O2C2H2O2C2O2C2O2C2O2C2O2C2H2O2C2H2O2H4C2H2O2H4C2O2H4C2O2H4C2O2H4C4H2C2H2C10H2C2H2C2H2C6
_chemical_formula_sum              "Nd4 O58 N12 C84 H56 Sr2"
_cell_length_a       10.394
_cell_length_b       11.066
_cell_length_c       30.409
_cell_angle_alpha    88.42
_cell_angle_beta     87.81
_cell_angle_gamma    79.04

_space_group_name_H-M_alt    "P 1"
_space_group_IT_number       1

loop_
  _space_group_symop_operation_xyz
  'x, y, z'

loop_
  _atom_site_type_symbol
  _atom_site_label
  _atom_site_symmetry_multiplicity
  _atom_site_fract_x
  _atom_site_fract_y
  _atom_site_fract_z
  _atom_site_occupancy
  Nd  Nd1       1.0  0.44355  0.34521  0.37306  1.0000
  Nd  Nd2       1.0  0.55645  0.65478  0.62694  1.0000
  O   O1        1.0  0.53870  0.49290  0.32493  1.0000
  O   O2        1.0  0.46130  0.50710  0.67507  1.0000
  N   N1        1.0  0.68340  0.36210  0.38396  1.0000
  N   N2        1.0  0.31660  0.63790  0.61604  1.0000
  C   C1        1.0  0.73940  0.44310  0.36003  1.0000
  C   C2        1.0  0.26060  0.55690  0.63997  1.0000
  C   C3        1.0  0.13100  0.89480  0.02286  1.0000
  C   C4        1.0  0.86900  0.10520  0.97714  1.0000
  H   H1        1.0  0.14290  0.82110  0.00790  1.0000
  H   H2        1.0  0.85710  0.17890  0.99210  1.0000
  Nd  Nd3       1.0  0.87293  0.04570  0.14910  1.0000
  Nd  Nd4       1.0  0.12707  0.95430  0.85090  1.0000
  O   O3        1.0  0.70300  0.58410  0.30043  1.0000
  O   O4        1.0  0.29700  0.41590  0.69957  1.0000
  N   N3        1.0  0.29500  0.33990  0.44238  1.0000
  N   N4        1.0  0.70500  0.66010  0.55762  1.0000
  C   C5        1.0  0.86580  0.45730  0.36565  1.0000
  C   C6        1.0  0.13420  0.54270  0.63435  1.0000
  H   H3        1.0  0.90150  0.51580  0.34920  1.0000
  H   H4        1.0  0.09850  0.48420  0.65080  1.0000
  Sr  Sr1       1.0  0.72909  0.57212  0.21508  1.0000
  Sr  Sr2       1.0  0.27091  0.42788  0.78492  1.0000
  O   O5        1.0  0.56680  0.19950  0.42699  1.0000
  O   O6        1.0  0.43320  0.80050  0.57301  1.0000
  N   N5        1.0  0.36480  0.32930  0.29458  1.0000
  N   N6        1.0  0.63520  0.67070  0.70542  1.0000
  C   C7        1.0  0.93790  0.38330  0.39598  1.0000
  C   C8        1.0  0.06210  0.61670  0.60402  1.0000
  H   H5        1.0  0.02380  0.39110  0.40080  1.0000
  H   H6        1.0  0.97620  0.60890  0.59920  1.0000
  O   O7        1.0  0.74520  0.12280  0.46251  1.0000
  O   O8        1.0  0.25480  0.87720  0.53749  1.0000
  N   N7        1.0  0.63150  0.02790  0.14695  1.0000
  N   N8        1.0  0.36850  0.97210  0.85305  1.0000
  C   C9        1.0  0.88200  0.29620  0.41963  1.0000
  C   C10       1.0  0.11800  0.70380  0.58037  1.0000
  H   H7        1.0  0.93090  0.24310  0.43970  1.0000
  H   H8        1.0  0.06910  0.75690  0.56030  1.0000
  O   O9        1.0  0.43200  0.51490  0.42425  1.0000
  O   O10       1.0  0.56800  0.48510  0.57575  1.0000
  C   C11       1.0  0.75450  0.28930  0.41316  1.0000
  C   C12       1.0  0.24550  0.71070  0.58684  1.0000
  N   N9        1.0  0.03050  0.01740  0.08142  1.0000
  N   N10       1.0  0.96950  0.98260  0.91858  1.0000
  O   O11       1.0  0.35870  0.61210  0.48563  1.0000
  O   O12       1.0  0.64130  0.38790  0.51437  1.0000
  C   C13       1.0  0.65420  0.51400  0.32547  1.0000
  C   C14       1.0  0.34580  0.48600  0.67453  1.0000
  N   N11       1.0  0.96660  0.08940  0.22170  1.0000
  N   N12       1.0  0.03340  0.91060  0.77830  1.0000
  O   O13       1.0  0.31560  0.17410  0.38137  1.0000
  O   O14       1.0  0.68440  0.82590  0.61863  1.0000
  C   C15       1.0  0.68500  0.19640  0.43677  1.0000
  C   C16       1.0  0.31500  0.80360  0.56323  1.0000
  O   O15       1.0  0.17970  0.07160  0.41790  1.0000
  O   O16       1.0  0.82030  0.92840  0.58210  1.0000
  C   C17       1.0  0.28950  0.42730  0.47208  1.0000
  C   C18       1.0  0.71050  0.57270  0.52792  1.0000
  O   O17       1.0  0.57030  0.18720  0.32669  1.0000
  O   O18       1.0  0.42970  0.81280  0.67331  1.0000
  C   C19       1.0  0.21680  0.42470  0.51075  1.0000
  C   C20       1.0  0.78320  0.57530  0.48925  1.0000
  H   H9        1.0  0.21160  0.48730  0.53090  1.0000
  H   H10       1.0  0.78840  0.51270  0.46910  1.0000
  O   O19       1.0  0.61710  0.09100  0.26363  1.0000
  O   O20       1.0  0.38290  0.90900  0.73637  1.0000
  C   C21       1.0  0.15160  0.32870  0.51940  1.0000
  C   C22       1.0  0.84840  0.67130  0.48060  1.0000
  H   H11       1.0  0.10340  0.32540  0.54570  1.0000
  H   H12       1.0  0.89660  0.67460  0.45430  1.0000
  O   O21       1.0  0.23780  0.48160  0.35175  1.0000
  O   O22       1.0  0.76220  0.51840  0.64825  1.0000
  C   C23       1.0  0.15830  0.23780  0.48898  1.0000
  C   C24       1.0  0.84170  0.76220  0.51102  1.0000
  H   H13       1.0  0.11550  0.17200  0.49420  1.0000
  H   H14       1.0  0.88450  0.82800  0.50580  1.0000
  O   O23       1.0  0.09320  0.56740  0.30316  1.0000
  O   O24       1.0  0.90680  0.43260  0.69684  1.0000
  C   C25       1.0  0.23090  0.24740  0.45029  1.0000
  C   C26       1.0  0.76910  0.75260  0.54971  1.0000
  O   O25       1.0  0.79340  0.90210  0.20202  1.0000
  O   O26       1.0  0.20660  0.09790  0.79798  1.0000
  C   C27       1.0  0.36630  0.52650  0.45966  1.0000
  C   C28       1.0  0.63370  0.47350  0.54034  1.0000
  O   O27       1.0  0.64150  0.80230  0.23094  1.0000
  O   O28       1.0  0.35850  0.19770  0.76906  1.0000
  C   C29       1.0  0.24170  0.15580  0.41411  1.0000
  C   C30       1.0  0.75830  0.84420  0.58589  1.0000
  O   O29       1.0  0.74370  0.16430  0.09110  1.0000
  O   O30       1.0  0.25630  0.83570  0.90890  1.0000
  C   C31       1.0  0.43660  0.25230  0.26701  1.0000
  C   C32       1.0  0.56340  0.74770  0.73299  1.0000
  O   O31       1.0  0.55690  0.24740  0.06241  1.0000
  O   O32       1.0  0.44310  0.75260  0.93759  1.0000
  C   C33       1.0  0.40550  0.24670  0.22374  1.0000
  C   C34       1.0  0.59450  0.75330  0.77626  1.0000
  H   H15       1.0  0.45910  0.19300  0.20480  1.0000
  H   H16       1.0  0.54090  0.80700  0.79520  1.0000
  O   O33       1.0  0.87690  0.85880  0.10385  1.0000
  O   O34       1.0  0.12310  0.14120  0.89615  1.0000
  C   C35       1.0  0.29550  0.32070  0.20906  1.0000
  C   C36       1.0  0.70450  0.67930  0.79094  1.0000
  H   H17       1.0  0.27200  0.31770  0.18000  1.0000
  H   H18       1.0  0.72800  0.68230  0.82000  1.0000
  O   O35       1.0  0.99170  0.71620  0.06128  1.0000
  O   O36       1.0  0.00830  0.28380  0.93872  1.0000
  C   C37       1.0  0.21980  0.40000  0.23769  1.0000
  C   C38       1.0  0.78020  0.60000  0.76231  1.0000
  H   H19       1.0  0.14300  0.45030  0.22850  1.0000
  H   H20       1.0  0.85700  0.54970  0.77150  1.0000
  O   O37       1.0  0.00120  0.21240  0.13070  1.0000
  O   O38       1.0  0.99880  0.78760  0.86930  1.0000
  C   C39       1.0  0.25870  0.40420  0.28027  1.0000
  C   C40       1.0  0.74130  0.59580  0.71973  1.0000
  O   O39       1.0  0.13270  0.30180  0.08640  1.0000
  O   O40       1.0  0.86730  0.69820  0.91360  1.0000
  C   C41       1.0  0.55170  0.17060  0.28691  1.0000
  C   C42       1.0  0.44830  0.82940  0.71309  1.0000
  O   O41       1.0  0.06810  0.90440  0.17204  1.0000
  O   O42       1.0  0.93190  0.09560  0.82796  1.0000
  C   C43       1.0  0.18920  0.49230  0.31399  1.0000
  C   C44       1.0  0.81080  0.50770  0.68601  1.0000
  O   O43       1.0  0.20750  0.82650  0.22294  1.0000
  O   O44       1.0  0.79250  0.17350  0.77706  1.0000
  C   C45       1.0  0.58130  0.95280  0.17509  1.0000
  C   C46       1.0  0.41870  0.04720  0.82491  1.0000
  O   O45       1.0  0.75960  0.22650  0.18948  1.0000
  O   O46       1.0  0.24040  0.77350  0.81052  1.0000
  C   C47       1.0  0.45190  0.94330  0.17601  1.0000
  C   C48       1.0  0.54810  0.05670  0.82399  1.0000
  H   H21       1.0  0.41940  0.88990  0.19580  1.0000
  H   H22       1.0  0.58060  0.11010  0.80420  1.0000
  O   O47       1.0  0.74150  0.35620  0.24518  1.0000
  O   O48       1.0  0.25850  0.64380  0.75482  1.0000
  C   C49       1.0  0.37100  0.01560  0.14668  1.0000
  C   C50       1.0  0.62900  0.98440  0.85332  1.0000
  H   H23       1.0  0.28260  0.01120  0.14610  1.0000
  H   H24       1.0  0.71740  0.98880  0.85390  1.0000
  O   O49       1.0  0.73870  0.68250  0.13998  1.0000
  O   O50       1.0  0.26130  0.31750  0.86002  1.0000
  H   H25       1.0  0.79240  0.73160  0.14010  1.0000
  H   H26       1.0  0.20760  0.26840  0.85990  1.0000
  H   H27       1.0  0.66880  0.68500  0.12610  1.0000
  H   H28       1.0  0.33120  0.31500  0.87390  1.0000
  C   C51       1.0  0.42270  0.09430  0.11824  1.0000
  C   C52       1.0  0.57730  0.90570  0.88176  1.0000
  H   H29       1.0  0.36910  0.14510  0.09870  1.0000
  H   H30       1.0  0.63090  0.85490  0.90130  1.0000
  O   O51       1.0  0.92890  0.43790  0.17395  1.0000
  O   O52       1.0  0.07110  0.56210  0.82605  1.0000
  H   H31       1.0  0.98510  0.48470  0.17380  1.0000
  H   H32       1.0  0.01490  0.51530  0.82620  1.0000
  H   H33       1.0  0.95720  0.37280  0.15970  1.0000
  H   H34       1.0  0.04280  0.62720  0.84030  1.0000
  C   C53       1.0  0.55460  0.09710  0.11899  1.0000
  C   C54       1.0  0.44540  0.90290  0.88101  1.0000
  O   O53       1.0  0.62170  0.44710  0.15816  1.0000
  O   O54       1.0  0.37830  0.55290  0.84184  1.0000
  H   H35       1.0  0.58080  0.49490  0.13880  1.0000
  H   H36       1.0  0.41920  0.50510  0.86120  1.0000
  H   H37       1.0  0.65410  0.38060  0.14520  1.0000
  H   H38       1.0  0.34590  0.61940  0.85480  1.0000
  C   C55       1.0  0.67940  0.87970  0.20562  1.0000
  C   C56       1.0  0.32060  0.12030  0.79438  1.0000
  O   O55       1.0  0.48480  0.59050  0.24001  1.0000
  O   O56       1.0  0.51520  0.40950  0.75999  1.0000
  H   H39       1.0  0.43070  0.60410  0.21940  1.0000
  H   H40       1.0  0.56930  0.39590  0.78060  1.0000
  H   H41       1.0  0.45780  0.52470  0.24730  1.0000
  H   H42       1.0  0.54220  0.47530  0.75270  1.0000
  C   C57       1.0  0.62270  0.17630  0.08834  1.0000
  C   C58       1.0  0.37730  0.82370  0.91166  1.0000
  O   O57       1.0  0.94340  0.65680  0.22671  1.0000
  O   O58       1.0  0.05660  0.34320  0.77329  1.0000
  H   H43       1.0  0.99870  0.64650  0.24700  1.0000
  H   H44       1.0  0.00130  0.35350  0.75300  1.0000
  H   H45       1.0  0.94970  0.71870  0.21020  1.0000
  H   H46       1.0  0.05030  0.28130  0.78980  1.0000
  C   C59       1.0  0.04710  0.91410  0.05872  1.0000
  C   C60       1.0  0.95290  0.08590  0.94128  1.0000
  C   C61       1.0  0.19810  0.98640  0.00922  1.0000
  C   C62       1.0  0.80190  0.01360  0.99078  1.0000
  H   H47       1.0  0.25330  0.97620  0.98430  1.0000
  H   H48       1.0  0.74670  0.02380  0.01570  1.0000
  C   C63       1.0  0.18250  0.09200  0.03261  1.0000
  C   C64       1.0  0.81750  0.90800  0.96739  1.0000
  H   H49       1.0  0.22840  0.15390  0.02440  1.0000
  H   H50       1.0  0.77160  0.84610  0.97560  1.0000
  C   C65       1.0  0.09740  0.10470  0.06872  1.0000
  C   C66       1.0  0.90260  0.89530  0.93128  1.0000
  C   C67       1.0  0.96540  0.82180  0.07592  1.0000
  C   C68       1.0  0.03460  0.17820  0.92408  1.0000
  C   C69       1.0  0.07540  0.21690  0.09724  1.0000
  C   C70       1.0  0.92460  0.78310  0.90276  1.0000
  C   C71       1.0  0.07160  0.01560  0.23602  1.0000
  C   C72       1.0  0.92840  0.98440  0.76398  1.0000
  C   C73       1.0  0.13140  0.04210  0.27355  1.0000
  C   C74       1.0  0.86860  0.95790  0.72645  1.0000
  H   H51       1.0  0.20560  0.98910  0.28340  1.0000
  H   H52       1.0  0.79440  0.01090  0.71660  1.0000
  C   C75       1.0  0.08140  0.14530  0.29577  1.0000
  C   C76       1.0  0.91860  0.85470  0.70423  1.0000
  H   H53       1.0  0.12200  0.16470  0.32070  1.0000
  H   H54       1.0  0.87800  0.83530  0.67930  1.0000
  C   C77       1.0  0.97040  0.22150  0.28148  1.0000
  C   C78       1.0  0.02960  0.77850  0.71852  1.0000
  H   H55       1.0  0.93360  0.29250  0.29650  1.0000
  H   H56       1.0  0.06640  0.70750  0.70350  1.0000
  C   C79       1.0  0.91540  0.18920  0.24420  1.0000
  C   C80       1.0  0.08460  0.81080  0.75580  1.0000
  C   C81       1.0  0.11980  0.90600  0.20839  1.0000
  C   C82       1.0  0.88020  0.09400  0.79161  1.0000
  C   C83       1.0  0.79500  0.26440  0.22520  1.0000
  C   C84       1.0  0.20500  0.73560  0.77480  1.0000
