data_image0
_chemical_formula_structural       Cd8O48C8H8C48H8C8H8C8
_chemical_formula_sum              "Cd8 O48 C72 H24"
_cell_length_a       12.5634
_cell_length_b       16.1618
_cell_length_c       17.1222
_cell_angle_alpha    90
_cell_angle_beta     90
_cell_angle_gamma    90

_space_group_name_H-M_alt    "P 1"
_space_group_IT_number       1

loop_
  _space_group_symop_operation_xyz
  'x, y, z'

loop_
  _atom_site_type_symbol
  _atom_site_label
  _atom_site_symmetry_multiplicity
  _atom_site_fract_x
  _atom_site_fract_y
  _atom_site_fract_z
  _atom_site_occupancy
  Cd  Cd1       1.0  0.94074  0.14297  0.83375  1.0000
  Cd  Cd2       1.0  0.55926  0.35703  0.33375  1.0000
  Cd  Cd3       1.0  0.05926  0.14297  0.66625  1.0000
  Cd  Cd4       1.0  0.44074  0.35703  0.16625  1.0000
  Cd  Cd5       1.0  0.05926  0.85703  0.16625  1.0000
  Cd  Cd6       1.0  0.44074  0.64297  0.66625  1.0000
  Cd  Cd7       1.0  0.94074  0.85703  0.33375  1.0000
  Cd  Cd8       1.0  0.55926  0.64297  0.83375  1.0000
  O   O1        1.0  0.92470  0.23116  0.63979  1.0000
  O   O2        1.0  0.57530  0.26884  0.13979  1.0000
  O   O3        1.0  0.07530  0.23116  0.86021  1.0000
  O   O4        1.0  0.42470  0.26884  0.36021  1.0000
  O   O5        1.0  0.07530  0.76884  0.36021  1.0000
  O   O6        1.0  0.42470  0.73116  0.86021  1.0000
  O   O7        1.0  0.92470  0.76884  0.13979  1.0000
  O   O8        1.0  0.57530  0.73116  0.63979  1.0000
  O   O9        1.0  0.54630  0.41212  0.46383  1.0000
  O   O10       1.0  0.95370  0.08788  0.96383  1.0000
  O   O11       1.0  0.45370  0.41212  0.03617  1.0000
  O   O12       1.0  0.04630  0.08788  0.53617  1.0000
  O   O13       1.0  0.45370  0.58788  0.53617  1.0000
  O   O14       1.0  0.04630  0.91212  0.03617  1.0000
  O   O15       1.0  0.54630  0.58788  0.96383  1.0000
  O   O16       1.0  0.95370  0.91212  0.46383  1.0000
  O   O17       1.0  0.59810  0.57480  0.71109  1.0000
  O   O18       1.0  0.90190  0.92520  0.21109  1.0000
  O   O19       1.0  0.40190  0.57480  0.78891  1.0000
  O   O20       1.0  0.09810  0.92520  0.28891  1.0000
  O   O21       1.0  0.40190  0.42520  0.28891  1.0000
  O   O22       1.0  0.09810  0.07480  0.78891  1.0000
  O   O23       1.0  0.59810  0.42520  0.21109  1.0000
  O   O24       1.0  0.90190  0.07480  0.71109  1.0000
  O   O25       1.0  0.87050  0.24891  0.76501  1.0000
  O   O26       1.0  0.62950  0.25109  0.26501  1.0000
  O   O27       1.0  0.12950  0.24891  0.73499  1.0000
  O   O28       1.0  0.37050  0.25109  0.23499  1.0000
  O   O29       1.0  0.12950  0.75109  0.23499  1.0000
  O   O30       1.0  0.37050  0.74891  0.73499  1.0000
  O   O31       1.0  0.87050  0.75109  0.26501  1.0000
  O   O32       1.0  0.62950  0.74891  0.76501  1.0000
  O   O33       1.0  0.64460  0.50510  0.81636  1.0000
  O   O34       1.0  0.85540  0.99490  0.31636  1.0000
  O   O35       1.0  0.35540  0.50510  0.68364  1.0000
  O   O36       1.0  0.14460  0.99490  0.18364  1.0000
  O   O37       1.0  0.35540  0.49490  0.18364  1.0000
  O   O38       1.0  0.14460  0.00510  0.68364  1.0000
  O   O39       1.0  0.64460  0.49490  0.31636  1.0000
  O   O40       1.0  0.85540  0.00510  0.81636  1.0000
  O   O41       1.0  0.67560  0.32580  0.43371  1.0000
  O   O42       1.0  0.82440  0.17420  0.93371  1.0000
  O   O43       1.0  0.32440  0.32580  0.06629  1.0000
  O   O44       1.0  0.17560  0.17420  0.56629  1.0000
  O   O45       1.0  0.32440  0.67420  0.56629  1.0000
  O   O46       1.0  0.17560  0.82580  0.06629  1.0000
  O   O47       1.0  0.67560  0.67420  0.93371  1.0000
  O   O48       1.0  0.82440  0.82580  0.43371  1.0000
  C   C1        1.0  0.74420  0.38290  0.71760  1.0000
  C   C2        1.0  0.75580  0.11710  0.21760  1.0000
  C   C3        1.0  0.25580  0.38290  0.78240  1.0000
  C   C4        1.0  0.24420  0.11710  0.28240  1.0000
  C   C5        1.0  0.25580  0.61710  0.28240  1.0000
  C   C6        1.0  0.24420  0.88290  0.78240  1.0000
  C   C7        1.0  0.74420  0.61710  0.21760  1.0000
  C   C8        1.0  0.75580  0.88290  0.71760  1.0000
  H   H1        1.0  0.76640  0.38340  0.76940  1.0000
  H   H2        1.0  0.73360  0.11660  0.26940  1.0000
  H   H3        1.0  0.23360  0.38340  0.73060  1.0000
  H   H4        1.0  0.26640  0.11660  0.23060  1.0000
  H   H5        1.0  0.23360  0.61660  0.23060  1.0000
  H   H6        1.0  0.26640  0.88340  0.73060  1.0000
  H   H7        1.0  0.76640  0.61660  0.26940  1.0000
  H   H8        1.0  0.73360  0.88340  0.76940  1.0000
  C   C9        1.0  0.78460  0.32370  0.66590  1.0000
  C   C10       1.0  0.71540  0.17630  0.16590  1.0000
  C   C11       1.0  0.21540  0.32370  0.83410  1.0000
  C   C12       1.0  0.28460  0.17630  0.33410  1.0000
  C   C13       1.0  0.21540  0.67630  0.33410  1.0000
  C   C14       1.0  0.28460  0.82370  0.83410  1.0000
  C   C15       1.0  0.78460  0.67630  0.16590  1.0000
  C   C16       1.0  0.71540  0.82370  0.66590  1.0000
  C   C17       1.0  0.62730  0.37180  0.48230  1.0000
  C   C18       1.0  0.87270  0.12820  0.98230  1.0000
  C   C19       1.0  0.37270  0.37180  0.01770  1.0000
  C   C20       1.0  0.12730  0.12820  0.51770  1.0000
  C   C21       1.0  0.37270  0.62820  0.51770  1.0000
  C   C22       1.0  0.12730  0.87180  0.01770  1.0000
  C   C23       1.0  0.62730  0.62820  0.98230  1.0000
  C   C24       1.0  0.87270  0.87180  0.48230  1.0000
  C   C25       1.0  0.86670  0.26260  0.69300  1.0000
  C   C26       1.0  0.63330  0.23740  0.19300  1.0000
  C   C27       1.0  0.13330  0.26260  0.80700  1.0000
  C   C28       1.0  0.36670  0.23740  0.30700  1.0000
  C   C29       1.0  0.13330  0.73740  0.30700  1.0000
  C   C30       1.0  0.36670  0.76260  0.80700  1.0000
  C   C31       1.0  0.86670  0.73740  0.19300  1.0000
  C   C32       1.0  0.63330  0.76260  0.69300  1.0000
  C   C33       1.0  0.67000  0.44170  0.69120  1.0000
  C   C34       1.0  0.83000  0.05830  0.19120  1.0000
  C   C35       1.0  0.33000  0.44170  0.80880  1.0000
  C   C36       1.0  0.17000  0.05830  0.30880  1.0000
  C   C37       1.0  0.33000  0.55830  0.30880  1.0000
  C   C38       1.0  0.17000  0.94170  0.80880  1.0000
  C   C39       1.0  0.67000  0.55830  0.19120  1.0000
  C   C40       1.0  0.83000  0.94170  0.69120  1.0000
  C   C41       1.0  0.63490  0.51030  0.74330  1.0000
  C   C42       1.0  0.86510  0.98970  0.24330  1.0000
  C   C43       1.0  0.36510  0.51030  0.75670  1.0000
  C   C44       1.0  0.13490  0.98970  0.25670  1.0000
  C   C45       1.0  0.36510  0.48970  0.25670  1.0000
  C   C46       1.0  0.13490  0.01030  0.75670  1.0000
  C   C47       1.0  0.63490  0.48970  0.24330  1.0000
  C   C48       1.0  0.86510  0.01030  0.74330  1.0000
  C   C49       1.0  0.63240  0.43860  0.61480  1.0000
  C   C50       1.0  0.86760  0.06140  0.11480  1.0000
  C   C51       1.0  0.36760  0.43860  0.88520  1.0000
  C   C52       1.0  0.13240  0.06140  0.38520  1.0000
  C   C53       1.0  0.36760  0.56140  0.38520  1.0000
  C   C54       1.0  0.13240  0.93860  0.88520  1.0000
  C   C55       1.0  0.63240  0.56140  0.11480  1.0000
  C   C56       1.0  0.86760  0.93860  0.61480  1.0000
  H   H9        1.0  0.58230  0.47690  0.59770  1.0000
  H   H10       1.0  0.91770  0.02310  0.09770  1.0000
  H   H11       1.0  0.41770  0.47690  0.90230  1.0000
  H   H12       1.0  0.08230  0.02310  0.40230  1.0000
  H   H13       1.0  0.41770  0.52310  0.40230  1.0000
  H   H14       1.0  0.08230  0.97690  0.90230  1.0000
  H   H15       1.0  0.58230  0.52310  0.09770  1.0000
  H   H16       1.0  0.91770  0.97690  0.59770  1.0000
  C   C57       1.0  0.74750  0.32180  0.58900  1.0000
  C   C58       1.0  0.75250  0.17820  0.08900  1.0000
  C   C59       1.0  0.25250  0.32180  0.91100  1.0000
  C   C60       1.0  0.24750  0.17820  0.41100  1.0000
  C   C61       1.0  0.25250  0.67820  0.41100  1.0000
  C   C62       1.0  0.24750  0.82180  0.91100  1.0000
  C   C63       1.0  0.74750  0.67820  0.08900  1.0000
  C   C64       1.0  0.75250  0.82180  0.58900  1.0000
  H   H17       1.0  0.77480  0.28290  0.55430  1.0000
  H   H18       1.0  0.72520  0.21710  0.05430  1.0000
  H   H19       1.0  0.22520  0.28290  0.94570  1.0000
  H   H20       1.0  0.27480  0.21710  0.44570  1.0000
  H   H21       1.0  0.22520  0.71710  0.44570  1.0000
  H   H22       1.0  0.27480  0.78290  0.94570  1.0000
  H   H23       1.0  0.77480  0.71710  0.05430  1.0000
  H   H24       1.0  0.72520  0.78290  0.55430  1.0000
  C   C65       1.0  0.67040  0.37720  0.56370  1.0000
  C   C66       1.0  0.82960  0.12280  0.06370  1.0000
  C   C67       1.0  0.32960  0.37720  0.93630  1.0000
  C   C68       1.0  0.17040  0.12280  0.43630  1.0000
  C   C69       1.0  0.32960  0.62280  0.43630  1.0000
  C   C70       1.0  0.17040  0.87720  0.93630  1.0000
  C   C71       1.0  0.67040  0.62280  0.06370  1.0000
  C   C72       1.0  0.82960  0.87720  0.56370  1.0000
