data_image0
_chemical_formula_structural       Mn4O16C8H4C8H4C8H4C12O8
_chemical_formula_sum              "Mn4 O24 C36 H12"
_cell_length_a       9.4648
_cell_length_b       16.2782
_cell_length_c       11.5458
_cell_angle_alpha    90
_cell_angle_beta     97.104
_cell_angle_gamma    90

_space_group_name_H-M_alt    "P 1"
_space_group_IT_number       1

loop_
  _space_group_symop_operation_xyz
  'x, y, z'

loop_
  _atom_site_type_symbol
  _atom_site_label
  _atom_site_symmetry_multiplicity
  _atom_site_fract_x
  _atom_site_fract_y
  _atom_site_fract_z
  _atom_site_occupancy
  Mn  Mn1       1.0  0.63605  0.42036  0.95273  1.0000
  Mn  Mn2       1.0  0.86395  0.92036  0.54727  1.0000
  Mn  Mn3       1.0  0.36395  0.57964  0.04727  1.0000
  Mn  Mn4       1.0  0.13605  0.07964  0.45273  1.0000
  O   O1        1.0  0.58090  0.33260  0.04980  1.0000
  O   O2        1.0  0.91910  0.83260  0.45020  1.0000
  O   O3        1.0  0.41910  0.66740  0.95020  1.0000
  O   O4        1.0  0.08090  0.16740  0.54980  1.0000
  O   O5        1.0  0.80930  0.30690  0.09340  1.0000
  O   O6        1.0  0.69070  0.80690  0.40660  1.0000
  O   O7        1.0  0.19070  0.69310  0.90660  1.0000
  O   O8        1.0  0.30930  0.19310  0.59340  1.0000
  O   O9        1.0  0.95720  0.06720  0.34690  1.0000
  O   O10       1.0  0.54280  0.56720  0.15310  1.0000
  O   O11       1.0  0.04280  0.93280  0.65310  1.0000
  O   O12       1.0  0.45720  0.43280  0.84690  1.0000
  O   O13       1.0  0.80230  0.02010  0.45980  1.0000
  O   O14       1.0  0.69770  0.52010  0.04020  1.0000
  O   O15       1.0  0.19770  0.97990  0.54020  1.0000
  O   O16       1.0  0.30230  0.47990  0.95980  1.0000
  C   C1        1.0  0.64650  0.22420  0.18160  1.0000
  C   C2        1.0  0.85350  0.72420  0.31840  1.0000
  C   C3        1.0  0.35350  0.77580  0.81840  1.0000
  C   C4        1.0  0.14650  0.27580  0.68160  1.0000
  C   C5        1.0  0.75220  0.17410  0.23650  1.0000
  C   C6        1.0  0.74780  0.67410  0.26350  1.0000
  C   C7        1.0  0.24780  0.82590  0.76350  1.0000
  C   C8        1.0  0.25220  0.32590  0.73650  1.0000
  H   H1        1.0  0.84570  0.18080  0.22100  1.0000
  H   H2        1.0  0.65430  0.68080  0.27900  1.0000
  H   H3        1.0  0.15430  0.81920  0.77900  1.0000
  H   H4        1.0  0.34570  0.31920  0.72100  1.0000
  C   C9        1.0  0.72040  0.11380  0.31440  1.0000
  C   C10       1.0  0.77960  0.61380  0.18560  1.0000
  C   C11       1.0  0.27960  0.88620  0.68560  1.0000
  C   C12       1.0  0.22040  0.38620  0.81440  1.0000
  C   C13       1.0  0.58020  0.10500  0.33680  1.0000
  C   C14       1.0  0.91980  0.60500  0.16320  1.0000
  C   C15       1.0  0.41980  0.89500  0.66320  1.0000
  C   C16       1.0  0.08020  0.39500  0.83680  1.0000
  H   H5        1.0  0.55790  0.06470  0.38870  1.0000
  H   H6        1.0  0.94210  0.56470  0.11130  1.0000
  H   H7        1.0  0.44210  0.93530  0.61130  1.0000
  H   H8        1.0  0.05790  0.43530  0.88870  1.0000
  C   C17       1.0  0.47300  0.15510  0.28320  1.0000
  C   C18       1.0  0.02700  0.65510  0.21680  1.0000
  C   C19       1.0  0.52700  0.84490  0.71680  1.0000
  C   C20       1.0  0.97300  0.34490  0.78320  1.0000
  C   C21       1.0  0.50700  0.21460  0.20510  1.0000
  C   C22       1.0  0.99300  0.71460  0.29490  1.0000
  C   C23       1.0  0.49300  0.78540  0.79490  1.0000
  C   C24       1.0  0.00700  0.28540  0.70510  1.0000
  H   H9        1.0  0.43580  0.24820  0.16810  1.0000
  H   H10       1.0  0.06420  0.74820  0.33190  1.0000
  H   H11       1.0  0.56420  0.75180  0.83190  1.0000
  H   H12       1.0  0.93580  0.25180  0.66810  1.0000
  C   C25       1.0  0.68480  0.29190  0.10200  1.0000
  C   C26       1.0  0.81520  0.79190  0.39800  1.0000
  C   C27       1.0  0.31520  0.70810  0.89800  1.0000
  C   C28       1.0  0.18480  0.20810  0.60200  1.0000
  C   C29       1.0  0.83540  0.06290  0.37810  1.0000
  C   C30       1.0  0.66460  0.56290  0.12190  1.0000
  C   C31       1.0  0.16460  0.93710  0.62190  1.0000
  C   C32       1.0  0.33540  0.43710  0.87810  1.0000
  C   C33       1.0  0.32410  0.14790  0.31290  1.0000
  C   C34       1.0  0.17590  0.64790  0.18710  1.0000
  C   C35       1.0  0.67590  0.85210  0.68710  1.0000
  C   C36       1.0  0.82410  0.35210  0.81290  1.0000
  O   O17       1.0  0.23750  0.20280  0.28750  1.0000
  O   O18       1.0  0.26250  0.70280  0.21250  1.0000
  O   O19       1.0  0.76250  0.79720  0.71250  1.0000
  O   O20       1.0  0.73750  0.29720  0.78750  1.0000
  O   O21       1.0  0.29620  0.08130  0.36420  1.0000
  O   O22       1.0  0.20380  0.58130  0.13580  1.0000
  O   O23       1.0  0.70380  0.91870  0.63580  1.0000
  O   O24       1.0  0.79620  0.41870  0.86420  1.0000
