data_image0
_chemical_formula_structural       Zn40O208N16C16H8C16H8C16H8C40H8C16H8C16H8C40H8C16H8C16H8C40H8C16H8C16H8C40H24C8H24C16H24C8H24C8H24C8H24
_chemical_formula_sum              "Zn40 O208 N16 C352 H240"
_cell_length_a       30.2857
_cell_length_b       16.998
_cell_length_c       28.4898
_cell_angle_alpha    90
_cell_angle_beta     95.403
_cell_angle_gamma    90

_space_group_name_H-M_alt    "P 1"
_space_group_IT_number       1

loop_
  _space_group_symop_operation_xyz
  'x, y, z'

loop_
  _atom_site_type_symbol
  _atom_site_label
  _atom_site_symmetry_multiplicity
  _atom_site_fract_x
  _atom_site_fract_y
  _atom_site_fract_z
  _atom_site_occupancy
  Zn  Zn1       1.0  0.32428  0.68323  0.73077  1.0000
  Zn  Zn2       1.0  0.67572  0.68323  0.76923  1.0000
  Zn  Zn3       1.0  0.82428  0.18323  0.73077  1.0000
  Zn  Zn4       1.0  0.17572  0.18323  0.76923  1.0000
  Zn  Zn5       1.0  0.67572  0.31677  0.26923  1.0000
  Zn  Zn6       1.0  0.32428  0.31677  0.23077  1.0000
  Zn  Zn7       1.0  0.17572  0.81677  0.26923  1.0000
  Zn  Zn8       1.0  0.82428  0.81677  0.23077  1.0000
  Zn  Zn9       1.0  0.35866  0.86491  0.69438  1.0000
  Zn  Zn10      1.0  0.64134  0.86491  0.80562  1.0000
  Zn  Zn11      1.0  0.85866  0.36491  0.69438  1.0000
  Zn  Zn12      1.0  0.14134  0.36491  0.80562  1.0000
  Zn  Zn13      1.0  0.64134  0.13509  0.30562  1.0000
  Zn  Zn14      1.0  0.35866  0.13509  0.19438  1.0000
  Zn  Zn15      1.0  0.14134  0.63509  0.30562  1.0000
  Zn  Zn16      1.0  0.85866  0.63509  0.19438  1.0000
  Zn  Zn17      1.0  0.52112  0.35971  0.59206  1.0000
  Zn  Zn18      1.0  0.47888  0.35971  0.90794  1.0000
  Zn  Zn19      1.0  0.02112  0.85971  0.59206  1.0000
  Zn  Zn20      1.0  0.97888  0.85971  0.90794  1.0000
  Zn  Zn21      1.0  0.47888  0.64029  0.40794  1.0000
  Zn  Zn22      1.0  0.52112  0.64029  0.09206  1.0000
  Zn  Zn23      1.0  0.97888  0.14029  0.40794  1.0000
  Zn  Zn24      1.0  0.02112  0.14029  0.09206  1.0000
  Zn  Zn25      1.0  0.43025  0.82485  0.41941  1.0000
  Zn  Zn26      1.0  0.56975  0.82485  0.08059  1.0000
  Zn  Zn27      1.0  0.93025  0.32485  0.41941  1.0000
  Zn  Zn28      1.0  0.06975  0.32485  0.08059  1.0000
  Zn  Zn29      1.0  0.56975  0.17515  0.58059  1.0000
  Zn  Zn30      1.0  0.43025  0.17515  0.91941  1.0000
  Zn  Zn31      1.0  0.06975  0.67515  0.58059  1.0000
  Zn  Zn32      1.0  0.93025  0.67515  0.91941  1.0000
  Zn  Zn33      1.0  0.27399  0.67466  0.99150  1.0000
  Zn  Zn34      1.0  0.72601  0.67466  0.50850  1.0000
  Zn  Zn35      1.0  0.77399  0.17466  0.99150  1.0000
  Zn  Zn36      1.0  0.22601  0.17466  0.50850  1.0000
  Zn  Zn37      1.0  0.72601  0.32534  0.00850  1.0000
  Zn  Zn38      1.0  0.27399  0.32534  0.49150  1.0000
  Zn  Zn39      1.0  0.22601  0.82534  0.00850  1.0000
  Zn  Zn40      1.0  0.77399  0.82534  0.49150  1.0000
  O   O1        1.0  0.36380  0.67400  0.68110  1.0000
  O   O2        1.0  0.63620  0.67400  0.81890  1.0000
  O   O3        1.0  0.86380  0.17400  0.68110  1.0000
  O   O4        1.0  0.13620  0.17400  0.81890  1.0000
  O   O5        1.0  0.63620  0.32600  0.31890  1.0000
  O   O6        1.0  0.36380  0.32600  0.18110  1.0000
  O   O7        1.0  0.13620  0.82600  0.31890  1.0000
  O   O8        1.0  0.86380  0.82600  0.18110  1.0000
  O   O9        1.0  0.37620  0.79340  0.64890  1.0000
  O   O10       1.0  0.62380  0.79340  0.85110  1.0000
  O   O11       1.0  0.87620  0.29340  0.64890  1.0000
  O   O12       1.0  0.12380  0.29340  0.85110  1.0000
  O   O13       1.0  0.62380  0.20660  0.35110  1.0000
  O   O14       1.0  0.37620  0.20660  0.14890  1.0000
  O   O15       1.0  0.12380  0.70660  0.35110  1.0000
  O   O16       1.0  0.87620  0.70660  0.14890  1.0000
  O   O17       1.0  0.49770  0.46440  0.58040  1.0000
  O   O18       1.0  0.50230  0.46440  0.91960  1.0000
  O   O19       1.0  0.99770  0.96440  0.58040  1.0000
  O   O20       1.0  0.00230  0.96440  0.91960  1.0000
  O   O21       1.0  0.50230  0.53560  0.41960  1.0000
  O   O22       1.0  0.49770  0.53560  0.08040  1.0000
  O   O23       1.0  0.00230  0.03560  0.41960  1.0000
  O   O24       1.0  0.99770  0.03560  0.08040  1.0000
  O   O25       1.0  0.46980  0.45930  0.64800  1.0000
  O   O26       1.0  0.53020  0.45930  0.85200  1.0000
  O   O27       1.0  0.96980  0.95930  0.64800  1.0000
  O   O28       1.0  0.03020  0.95930  0.85200  1.0000
  O   O29       1.0  0.53020  0.54070  0.35200  1.0000
  O   O30       1.0  0.46980  0.54070  0.14800  1.0000
  O   O31       1.0  0.03020  0.04070  0.35200  1.0000
  O   O32       1.0  0.96980  0.04070  0.14800  1.0000
  O   O33       1.0  0.42410  0.76780  0.48110  1.0000
  O   O34       1.0  0.57590  0.76780  0.01890  1.0000
  O   O35       1.0  0.92410  0.26780  0.48110  1.0000
  O   O36       1.0  0.07590  0.26780  0.01890  1.0000
  O   O37       1.0  0.57590  0.23220  0.51890  1.0000
  O   O38       1.0  0.42410  0.23220  0.98110  1.0000
  O   O39       1.0  0.07590  0.73220  0.51890  1.0000
  O   O40       1.0  0.92410  0.73220  0.98110  1.0000
  O   O41       1.0  0.44850  0.65200  0.46330  1.0000
  O   O42       1.0  0.55150  0.65200  0.03670  1.0000
  O   O43       1.0  0.94850  0.15200  0.46330  1.0000
  O   O44       1.0  0.05150  0.15200  0.03670  1.0000
  O   O45       1.0  0.55150  0.34800  0.53670  1.0000
  O   O46       1.0  0.44850  0.34800  0.96330  1.0000
  O   O47       1.0  0.05150  0.84800  0.53670  1.0000
  O   O48       1.0  0.94850  0.84800  0.96330  1.0000
  O   O49       1.0  0.38170  0.85290  0.76000  1.0000
  O   O50       1.0  0.61830  0.85290  0.74000  1.0000
  O   O51       1.0  0.88170  0.35290  0.76000  1.0000
  O   O52       1.0  0.11830  0.35290  0.74000  1.0000
  O   O53       1.0  0.61830  0.14710  0.24000  1.0000
  O   O54       1.0  0.38170  0.14710  0.26000  1.0000
  O   O55       1.0  0.11830  0.64710  0.24000  1.0000
  O   O56       1.0  0.88170  0.64710  0.26000  1.0000
  O   O57       1.0  0.34250  0.75300  0.78490  1.0000
  O   O58       1.0  0.65750  0.75300  0.71510  1.0000
  O   O59       1.0  0.84250  0.25300  0.78490  1.0000
  O   O60       1.0  0.15750  0.25300  0.71510  1.0000
  O   O61       1.0  0.65750  0.24700  0.21510  1.0000
  O   O62       1.0  0.34250  0.24700  0.28490  1.0000
  O   O63       1.0  0.15750  0.74700  0.21510  1.0000
  O   O64       1.0  0.84250  0.74700  0.28490  1.0000
  O   O65       1.0  0.29590  0.75750  0.94790  1.0000
  O   O66       1.0  0.70410  0.75750  0.55210  1.0000
  O   O67       1.0  0.79590  0.25750  0.94790  1.0000
  O   O68       1.0  0.20410  0.25750  0.55210  1.0000
  O   O69       1.0  0.70410  0.24250  0.05210  1.0000
  O   O70       1.0  0.29590  0.24250  0.44790  1.0000
  O   O71       1.0  0.20410  0.74250  0.05210  1.0000
  O   O72       1.0  0.79590  0.74250  0.44790  1.0000
  O   O73       1.0  0.26270  0.87300  0.96040  1.0000
  O   O74       1.0  0.73730  0.87300  0.53960  1.0000
  O   O75       1.0  0.76270  0.37300  0.96040  1.0000
  O   O76       1.0  0.23730  0.37300  0.53960  1.0000
  O   O77       1.0  0.73730  0.12700  0.03960  1.0000
  O   O78       1.0  0.26270  0.12700  0.46040  1.0000
  O   O79       1.0  0.23730  0.62700  0.03960  1.0000
  O   O80       1.0  0.76270  0.62700  0.46040  1.0000
  O   O81       1.0  0.37800  0.09090  0.93150  1.0000
  O   O82       1.0  0.62200  0.09090  0.56850  1.0000
  O   O83       1.0  0.87800  0.59090  0.93150  1.0000
  O   O84       1.0  0.12200  0.59090  0.56850  1.0000
  O   O85       1.0  0.62200  0.90910  0.06850  1.0000
  O   O86       1.0  0.37800  0.90910  0.43150  1.0000
  O   O87       1.0  0.12200  0.40910  0.06850  1.0000
  O   O88       1.0  0.87800  0.40910  0.43150  1.0000
  O   O89       1.0  0.41560  0.07590  0.87130  1.0000
  O   O90       1.0  0.58440  0.07590  0.62870  1.0000
  O   O91       1.0  0.91560  0.57590  0.87130  1.0000
  O   O92       1.0  0.08440  0.57590  0.62870  1.0000
  O   O93       1.0  0.58440  0.92410  0.12870  1.0000
  O   O94       1.0  0.41560  0.92410  0.37130  1.0000
  O   O95       1.0  0.08440  0.42410  0.12870  1.0000
  O   O96       1.0  0.91560  0.42410  0.37130  1.0000
  O   O97       1.0  0.56580  0.35030  0.64290  1.0000
  O   O98       1.0  0.43420  0.35030  0.85710  1.0000
  O   O99       1.0  0.06580  0.85030  0.64290  1.0000
  O   O100      1.0  0.93420  0.85030  0.85710  1.0000
  O   O101      1.0  0.43420  0.64970  0.35710  1.0000
  O   O102      1.0  0.56580  0.64970  0.14290  1.0000
  O   O103      1.0  0.93420  0.14970  0.35710  1.0000
  O   O104      1.0  0.06580  0.14970  0.14290  1.0000
  O   O105      1.0  0.60920  0.24850  0.62330  1.0000
  O   O106      1.0  0.39080  0.24850  0.87670  1.0000
  O   O107      1.0  0.10920  0.74850  0.62330  1.0000
  O   O108      1.0  0.89080  0.74850  0.87670  1.0000
  O   O109      1.0  0.39080  0.75150  0.37670  1.0000
  O   O110      1.0  0.60920  0.75150  0.12330  1.0000
  O   O111      1.0  0.89080  0.25150  0.37670  1.0000
  O   O112      1.0  0.10920  0.25150  0.12330  1.0000
  O   O113      1.0  0.63060  0.57540  0.72430  1.0000
  O   O114      1.0  0.36940  0.57540  0.77570  1.0000
  O   O115      1.0  0.13060  0.07540  0.72430  1.0000
  O   O116      1.0  0.86940  0.07540  0.77570  1.0000
  O   O117      1.0  0.36940  0.42460  0.27570  1.0000
  O   O118      1.0  0.63060  0.42460  0.22430  1.0000
  O   O119      1.0  0.86940  0.92460  0.27570  1.0000
  O   O120      1.0  0.13060  0.92460  0.22430  1.0000
  O   O121      1.0  0.70050  0.57890  0.75310  1.0000
  O   O122      1.0  0.29950  0.57890  0.74690  1.0000
  O   O123      1.0  0.20050  0.07890  0.75310  1.0000
  O   O124      1.0  0.79950  0.07890  0.74690  1.0000
  O   O125      1.0  0.29950  0.42110  0.24690  1.0000
  O   O126      1.0  0.70050  0.42110  0.25310  1.0000
  O   O127      1.0  0.79950  0.92110  0.24690  1.0000
  O   O128      1.0  0.20050  0.92110  0.25310  1.0000
  O   O129      1.0  0.79520  0.35880  0.70700  1.0000
  O   O130      1.0  0.20480  0.35880  0.79300  1.0000
  O   O131      1.0  0.29520  0.85880  0.70700  1.0000
  O   O132      1.0  0.70480  0.85880  0.79300  1.0000
  O   O133      1.0  0.20480  0.64120  0.29300  1.0000
  O   O134      1.0  0.79520  0.64120  0.20700  1.0000
  O   O135      1.0  0.70480  0.14120  0.29300  1.0000
  O   O136      1.0  0.29520  0.14120  0.20700  1.0000
  O   O137      1.0  0.76800  0.23810  0.70630  1.0000
  O   O138      1.0  0.23200  0.23810  0.79370  1.0000
  O   O139      1.0  0.26800  0.73810  0.70630  1.0000
  O   O140      1.0  0.73200  0.73810  0.79370  1.0000
  O   O141      1.0  0.23200  0.76190  0.29370  1.0000
  O   O142      1.0  0.76800  0.76190  0.20630  1.0000
  O   O143      1.0  0.73200  0.26190  0.29370  1.0000
  O   O144      1.0  0.26800  0.26190  0.20630  1.0000
  O   O145      1.0  0.47210  0.28850  0.58750  1.0000
  O   O146      1.0  0.52790  0.28850  0.91250  1.0000
  O   O147      1.0  0.97210  0.78850  0.58750  1.0000
  O   O148      1.0  0.02790  0.78850  0.91250  1.0000
  O   O149      1.0  0.52790  0.71150  0.41250  1.0000
  O   O150      1.0  0.47210  0.71150  0.08750  1.0000
  O   O151      1.0  0.02790  0.21150  0.41250  1.0000
  O   O152      1.0  0.97210  0.21150  0.08750  1.0000
  O   O153      1.0  0.51060  0.18420  0.60860  1.0000
  O   O154      1.0  0.48940  0.18420  0.89140  1.0000
  O   O155      1.0  0.01060  0.68420  0.60860  1.0000
  O   O156      1.0  0.98940  0.68420  0.89140  1.0000
  O   O157      1.0  0.48940  0.81580  0.39140  1.0000
  O   O158      1.0  0.51060  0.81580  0.10860  1.0000
  O   O159      1.0  0.98940  0.31580  0.39140  1.0000
  O   O160      1.0  0.01060  0.31580  0.10860  1.0000
  O   O161      1.0  0.42330  0.96080  0.67480  1.0000
  O   O162      1.0  0.57670  0.96080  0.82520  1.0000
  O   O163      1.0  0.92330  0.46080  0.67480  1.0000
  O   O164      1.0  0.07670  0.46080  0.82520  1.0000
  O   O165      1.0  0.57670  0.03920  0.32520  1.0000
  O   O166      1.0  0.42330  0.03920  0.17480  1.0000
  O   O167      1.0  0.07670  0.53920  0.32520  1.0000
  O   O168      1.0  0.92330  0.53920  0.17480  1.0000
  O   O169      1.0  0.35220  0.96330  0.66070  1.0000
  O   O170      1.0  0.64780  0.96330  0.83930  1.0000
  O   O171      1.0  0.85220  0.46330  0.66070  1.0000
  O   O172      1.0  0.14780  0.46330  0.83930  1.0000
  O   O173      1.0  0.64780  0.03670  0.33930  1.0000
  O   O174      1.0  0.35220  0.03670  0.16070  1.0000
  O   O175      1.0  0.14780  0.53670  0.33930  1.0000
  O   O176      1.0  0.85220  0.53670  0.16070  1.0000
  O   O177      1.0  0.27950  0.15750  0.55570  1.0000
  O   O178      1.0  0.72050  0.15750  0.94430  1.0000
  O   O179      1.0  0.77950  0.65750  0.55570  1.0000
  O   O180      1.0  0.22050  0.65750  0.94430  1.0000
  O   O181      1.0  0.72050  0.84250  0.44430  1.0000
  O   O182      1.0  0.27950  0.84250  0.05570  1.0000
  O   O183      1.0  0.22050  0.34250  0.44430  1.0000
  O   O184      1.0  0.77950  0.34250  0.05570  1.0000
  O   O185      1.0  0.31340  0.27180  0.54390  1.0000
  O   O186      1.0  0.68660  0.27180  0.95610  1.0000
  O   O187      1.0  0.81340  0.77180  0.54390  1.0000
  O   O188      1.0  0.18660  0.77180  0.95610  1.0000
  O   O189      1.0  0.68660  0.72820  0.45610  1.0000
  O   O190      1.0  0.31340  0.72820  0.04390  1.0000
  O   O191      1.0  0.18660  0.22820  0.45610  1.0000
  O   O192      1.0  0.81340  0.22820  0.04390  1.0000
  O   O193      1.0  0.47740  0.89500  0.47170  1.0000
  O   O194      1.0  0.52260  0.89500  0.02830  1.0000
  O   O195      1.0  0.97740  0.39500  0.47170  1.0000
  O   O196      1.0  0.02260  0.39500  0.02830  1.0000
  O   O197      1.0  0.52260  0.10500  0.52830  1.0000
  O   O198      1.0  0.47740  0.10500  0.97170  1.0000
  O   O199      1.0  0.02260  0.60500  0.52830  1.0000
  O   O200      1.0  0.97740  0.60500  0.97170  1.0000
  O   O201      1.0  0.31700  0.59220  0.97900  1.0000
  O   O202      1.0  0.68300  0.59220  0.52100  1.0000
  O   O203      1.0  0.81700  0.09220  0.97900  1.0000
  O   O204      1.0  0.18300  0.09220  0.52100  1.0000
  O   O205      1.0  0.68300  0.40780  0.02100  1.0000
  O   O206      1.0  0.31700  0.40780  0.47900  1.0000
  O   O207      1.0  0.18300  0.90780  0.02100  1.0000
  O   O208      1.0  0.81700  0.90780  0.47900  1.0000
  N   N1        1.0  0.50930  0.89190  0.54590  1.0000
  N   N2        1.0  0.49070  0.89190  0.95410  1.0000
  N   N3        1.0  0.00930  0.39190  0.54590  1.0000
  N   N4        1.0  0.99070  0.39190  0.95410  1.0000
  N   N5        1.0  0.49070  0.10810  0.45410  1.0000
  N   N6        1.0  0.50930  0.10810  0.04590  1.0000
  N   N7        1.0  0.99070  0.60810  0.45410  1.0000
  N   N8        1.0  0.00930  0.60810  0.04590  1.0000
  N   N9        1.0  0.38030  0.58240  0.94490  1.0000
  N   N10       1.0  0.61970  0.58240  0.55510  1.0000
  N   N11       1.0  0.88030  0.08240  0.94490  1.0000
  N   N12       1.0  0.11970  0.08240  0.55510  1.0000
  N   N13       1.0  0.61970  0.41760  0.05510  1.0000
  N   N14       1.0  0.38030  0.41760  0.44490  1.0000
  N   N15       1.0  0.11970  0.91760  0.05510  1.0000
  N   N16       1.0  0.88030  0.91760  0.44490  1.0000
  C   C1        1.0  0.40510  0.67770  0.61590  1.0000
  C   C2        1.0  0.59490  0.67770  0.88410  1.0000
  C   C3        1.0  0.90510  0.17770  0.61590  1.0000
  C   C4        1.0  0.09490  0.17770  0.88410  1.0000
  C   C5        1.0  0.59490  0.32230  0.38410  1.0000
  C   C6        1.0  0.40510  0.32230  0.11590  1.0000
  C   C7        1.0  0.09490  0.82230  0.38410  1.0000
  C   C8        1.0  0.90510  0.82230  0.11590  1.0000
  C   C9        1.0  0.40950  0.71100  0.57290  1.0000
  C   C10       1.0  0.59050  0.71100  0.92710  1.0000
  C   C11       1.0  0.90950  0.21100  0.57290  1.0000
  C   C12       1.0  0.09050  0.21100  0.92710  1.0000
  C   C13       1.0  0.59050  0.28900  0.42710  1.0000
  C   C14       1.0  0.40950  0.28900  0.07290  1.0000
  C   C15       1.0  0.09050  0.78900  0.42710  1.0000
  C   C16       1.0  0.90950  0.78900  0.07290  1.0000
  H   H1        1.0  0.39630  0.75920  0.56490  1.0000
  H   H2        1.0  0.60370  0.75920  0.93510  1.0000
  H   H3        1.0  0.89630  0.25920  0.56490  1.0000
  H   H4        1.0  0.10370  0.25920  0.93510  1.0000
  H   H5        1.0  0.60370  0.24080  0.43510  1.0000
  H   H6        1.0  0.39630  0.24080  0.06490  1.0000
  H   H7        1.0  0.10370  0.74080  0.43510  1.0000
  H   H8        1.0  0.89630  0.74080  0.06490  1.0000
  C   C17       1.0  0.43400  0.67150  0.54130  1.0000
  C   C18       1.0  0.56600  0.67150  0.95870  1.0000
  C   C19       1.0  0.93400  0.17150  0.54130  1.0000
  C   C20       1.0  0.06600  0.17150  0.95870  1.0000
  C   C21       1.0  0.56600  0.32850  0.45870  1.0000
  C   C22       1.0  0.43400  0.32850  0.04130  1.0000
  C   C23       1.0  0.06600  0.82850  0.45870  1.0000
  C   C24       1.0  0.93400  0.82850  0.04130  1.0000
  C   C25       1.0  0.45540  0.60120  0.55350  1.0000
  C   C26       1.0  0.54460  0.60120  0.94650  1.0000
  C   C27       1.0  0.95540  0.10120  0.55350  1.0000
  C   C28       1.0  0.04460  0.10120  0.94650  1.0000
  C   C29       1.0  0.54460  0.39880  0.44650  1.0000
  C   C30       1.0  0.45540  0.39880  0.05350  1.0000
  C   C31       1.0  0.04460  0.89880  0.44650  1.0000
  C   C32       1.0  0.95540  0.89880  0.05350  1.0000
  H   H9        1.0  0.47150  0.57570  0.53180  1.0000
  H   H10       1.0  0.52850  0.57570  0.96820  1.0000
  H   H11       1.0  0.97150  0.07570  0.53180  1.0000
  H   H12       1.0  0.02850  0.07570  0.96820  1.0000
  H   H13       1.0  0.52850  0.42430  0.46820  1.0000
  H   H14       1.0  0.47150  0.42430  0.03180  1.0000
  H   H15       1.0  0.02850  0.92430  0.46820  1.0000
  H   H16       1.0  0.97150  0.92430  0.03180  1.0000
  C   C33       1.0  0.45290  0.56840  0.59830  1.0000
  C   C34       1.0  0.54710  0.56840  0.90170  1.0000
  C   C35       1.0  0.95290  0.06840  0.59830  1.0000
  C   C36       1.0  0.04710  0.06840  0.90170  1.0000
  C   C37       1.0  0.54710  0.43160  0.40170  1.0000
  C   C38       1.0  0.45290  0.43160  0.09830  1.0000
  C   C39       1.0  0.04710  0.93160  0.40170  1.0000
  C   C40       1.0  0.95290  0.93160  0.09830  1.0000
  C   C41       1.0  0.42750  0.60720  0.62900  1.0000
  C   C42       1.0  0.57250  0.60720  0.87100  1.0000
  C   C43       1.0  0.92750  0.10720  0.62900  1.0000
  C   C44       1.0  0.07250  0.10720  0.87100  1.0000
  C   C45       1.0  0.57250  0.39280  0.37100  1.0000
  C   C46       1.0  0.42750  0.39280  0.12900  1.0000
  C   C47       1.0  0.07250  0.89280  0.37100  1.0000
  C   C48       1.0  0.92750  0.89280  0.12900  1.0000
  H   H17       1.0  0.42530  0.58640  0.65890  1.0000
  H   H18       1.0  0.57470  0.58640  0.84110  1.0000
  H   H19       1.0  0.92530  0.08640  0.65890  1.0000
  H   H20       1.0  0.07470  0.08640  0.84110  1.0000
  H   H21       1.0  0.57470  0.41360  0.34110  1.0000
  H   H22       1.0  0.42530  0.41360  0.15890  1.0000
  H   H23       1.0  0.07470  0.91360  0.34110  1.0000
  H   H24       1.0  0.92530  0.91360  0.15890  1.0000
  C   C49       1.0  0.37960  0.71560  0.65260  1.0000
  C   C50       1.0  0.62040  0.71560  0.84740  1.0000
  C   C51       1.0  0.87960  0.21560  0.65260  1.0000
  C   C52       1.0  0.12040  0.21560  0.84740  1.0000
  C   C53       1.0  0.62040  0.28440  0.34740  1.0000
  C   C54       1.0  0.37960  0.28440  0.15260  1.0000
  C   C55       1.0  0.12040  0.78440  0.34740  1.0000
  C   C56       1.0  0.87960  0.78440  0.15260  1.0000
  C   C57       1.0  0.43700  0.70160  0.49290  1.0000
  C   C58       1.0  0.56300  0.70160  0.00710  1.0000
  C   C59       1.0  0.93700  0.20160  0.49290  1.0000
  C   C60       1.0  0.06300  0.20160  0.00710  1.0000
  C   C61       1.0  0.56300  0.29840  0.50710  1.0000
  C   C62       1.0  0.43700  0.29840  0.99290  1.0000
  C   C63       1.0  0.06300  0.79840  0.50710  1.0000
  C   C64       1.0  0.93700  0.79840  0.99290  1.0000
  C   C65       1.0  0.47530  0.49140  0.61100  1.0000
  C   C66       1.0  0.52470  0.49140  0.88900  1.0000
  C   C67       1.0  0.97530  0.99140  0.61100  1.0000
  C   C68       1.0  0.02470  0.99140  0.88900  1.0000
  C   C69       1.0  0.52470  0.50860  0.38900  1.0000
  C   C70       1.0  0.47530  0.50860  0.11100  1.0000
  C   C71       1.0  0.02470  0.00860  0.38900  1.0000
  C   C72       1.0  0.97530  0.00860  0.11100  1.0000
  C   C73       1.0  0.32090  0.86720  0.90840  1.0000
  C   C74       1.0  0.67910  0.86720  0.59160  1.0000
  C   C75       1.0  0.82090  0.36720  0.90840  1.0000
  C   C76       1.0  0.17910  0.36720  0.59160  1.0000
  C   C77       1.0  0.67910  0.13280  0.09160  1.0000
  C   C78       1.0  0.32090  0.13280  0.40840  1.0000
  C   C79       1.0  0.17910  0.63280  0.09160  1.0000
  C   C80       1.0  0.82090  0.63280  0.40840  1.0000
  C   C81       1.0  0.33790  0.94240  0.91570  1.0000
  C   C82       1.0  0.66210  0.94240  0.58430  1.0000
  C   C83       1.0  0.83790  0.44240  0.91570  1.0000
  C   C84       1.0  0.16210  0.44240  0.58430  1.0000
  C   C85       1.0  0.66210  0.05760  0.08430  1.0000
  C   C86       1.0  0.33790  0.05760  0.41570  1.0000
  C   C87       1.0  0.16210  0.55760  0.08430  1.0000
  C   C88       1.0  0.83790  0.55760  0.41570  1.0000
  H   H25       1.0  0.33050  0.97140  0.94150  1.0000
  H   H26       1.0  0.66950  0.97140  0.55850  1.0000
  H   H27       1.0  0.83050  0.47140  0.94150  1.0000
  H   H28       1.0  0.16950  0.47140  0.55850  1.0000
  H   H29       1.0  0.66950  0.02860  0.05850  1.0000
  H   H30       1.0  0.33050  0.02860  0.44150  1.0000
  H   H31       1.0  0.16950  0.52860  0.05850  1.0000
  H   H32       1.0  0.83050  0.52860  0.44150  1.0000
  C   C89       1.0  0.36540  0.97430  0.88580  1.0000
  C   C90       1.0  0.63460  0.97430  0.61420  1.0000
  C   C91       1.0  0.86540  0.47430  0.88580  1.0000
  C   C92       1.0  0.13460  0.47430  0.61420  1.0000
  C   C93       1.0  0.63460  0.02570  0.11420  1.0000
  C   C94       1.0  0.36540  0.02570  0.38580  1.0000
  C   C95       1.0  0.13460  0.52570  0.11420  1.0000
  C   C96       1.0  0.86540  0.52570  0.38580  1.0000
  C   C97       1.0  0.37390  0.93420  0.84500  1.0000
  C   C98       1.0  0.62610  0.93420  0.65500  1.0000
  C   C99       1.0  0.87390  0.43420  0.84500  1.0000
  C   C100      1.0  0.12610  0.43420  0.65500  1.0000
  C   C101      1.0  0.62610  0.06580  0.15500  1.0000
  C   C102      1.0  0.37390  0.06580  0.34500  1.0000
  C   C103      1.0  0.12610  0.56580  0.15500  1.0000
  C   C104      1.0  0.87390  0.56580  0.34500  1.0000
  H   H33       1.0  0.39180  0.95680  0.82390  1.0000
  H   H34       1.0  0.60820  0.95680  0.67610  1.0000
  H   H35       1.0  0.89180  0.45680  0.82390  1.0000
  H   H36       1.0  0.10820  0.45680  0.67610  1.0000
  H   H37       1.0  0.60820  0.04320  0.17610  1.0000
  H   H38       1.0  0.39180  0.04320  0.32390  1.0000
  H   H39       1.0  0.10820  0.54320  0.17610  1.0000
  H   H40       1.0  0.89180  0.54320  0.32390  1.0000
  C   C105      1.0  0.35560  0.86070  0.83590  1.0000
  C   C106      1.0  0.64440  0.86070  0.66410  1.0000
  C   C107      1.0  0.85560  0.36070  0.83590  1.0000
  C   C108      1.0  0.14440  0.36070  0.66410  1.0000
  C   C109      1.0  0.64440  0.13930  0.16410  1.0000
  C   C110      1.0  0.35560  0.13930  0.33590  1.0000
  C   C111      1.0  0.14440  0.63930  0.16410  1.0000
  C   C112      1.0  0.85560  0.63930  0.33590  1.0000
  C   C113      1.0  0.32880  0.82760  0.86710  1.0000
  C   C114      1.0  0.67120  0.82760  0.63290  1.0000
  C   C115      1.0  0.82880  0.32760  0.86710  1.0000
  C   C116      1.0  0.17120  0.32760  0.63290  1.0000
  C   C117      1.0  0.67120  0.17240  0.13290  1.0000
  C   C118      1.0  0.32880  0.17240  0.36710  1.0000
  C   C119      1.0  0.17120  0.67240  0.13290  1.0000
  C   C120      1.0  0.82880  0.67240  0.36710  1.0000
  H   H41       1.0  0.31600  0.77860  0.86060  1.0000
  H   H42       1.0  0.68400  0.77860  0.63940  1.0000
  H   H43       1.0  0.81600  0.27860  0.86060  1.0000
  H   H44       1.0  0.18400  0.27860  0.63940  1.0000
  H   H45       1.0  0.68400  0.22140  0.13940  1.0000
  H   H46       1.0  0.31600  0.22140  0.36060  1.0000
  H   H47       1.0  0.18400  0.72140  0.13940  1.0000
  H   H48       1.0  0.81600  0.72140  0.36060  1.0000
  C   C121      1.0  0.29150  0.82810  0.94170  1.0000
  C   C122      1.0  0.70850  0.82810  0.55830  1.0000
  C   C123      1.0  0.79150  0.32810  0.94170  1.0000
  C   C124      1.0  0.20850  0.32810  0.55830  1.0000
  C   C125      1.0  0.70850  0.17190  0.05830  1.0000
  C   C126      1.0  0.29150  0.17190  0.44170  1.0000
  C   C127      1.0  0.20850  0.67190  0.05830  1.0000
  C   C128      1.0  0.79150  0.67190  0.44170  1.0000
  C   C129      1.0  0.38790  0.05260  0.89660  1.0000
  C   C130      1.0  0.61210  0.05260  0.60340  1.0000
  C   C131      1.0  0.88790  0.55260  0.89660  1.0000
  C   C132      1.0  0.11210  0.55260  0.60340  1.0000
  C   C133      1.0  0.61210  0.94740  0.10340  1.0000
  C   C134      1.0  0.38790  0.94740  0.39660  1.0000
  C   C135      1.0  0.11210  0.44740  0.10340  1.0000
  C   C136      1.0  0.88790  0.44740  0.39660  1.0000
  C   C137      1.0  0.35990  0.81910  0.78960  1.0000
  C   C138      1.0  0.64010  0.81910  0.71040  1.0000
  C   C139      1.0  0.85990  0.31910  0.78960  1.0000
  C   C140      1.0  0.14010  0.31910  0.71040  1.0000
  C   C141      1.0  0.64010  0.18090  0.21040  1.0000
  C   C142      1.0  0.35990  0.18090  0.28960  1.0000
  C   C143      1.0  0.14010  0.68090  0.21040  1.0000
  C   C144      1.0  0.85990  0.68090  0.28960  1.0000
  C   C145      1.0  0.64150  0.34790  0.67270  1.0000
  C   C146      1.0  0.35850  0.34790  0.82730  1.0000
  C   C147      1.0  0.14150  0.84790  0.67270  1.0000
  C   C148      1.0  0.85850  0.84790  0.82730  1.0000
  C   C149      1.0  0.35850  0.65210  0.32730  1.0000
  C   C150      1.0  0.64150  0.65210  0.17270  1.0000
  C   C151      1.0  0.85850  0.15210  0.32730  1.0000
  C   C152      1.0  0.14150  0.15210  0.17270  1.0000
  C   C153      1.0  0.63740  0.42470  0.69080  1.0000
  C   C154      1.0  0.36260  0.42470  0.80920  1.0000
  C   C155      1.0  0.13740  0.92470  0.69080  1.0000
  C   C156      1.0  0.86260  0.92470  0.80920  1.0000
  C   C157      1.0  0.36260  0.57530  0.30920  1.0000
  C   C158      1.0  0.63740  0.57530  0.19080  1.0000
  C   C159      1.0  0.86260  0.07530  0.30920  1.0000
  C   C160      1.0  0.13740  0.07530  0.19080  1.0000
  H   H49       1.0  0.61000  0.44980  0.68680  1.0000
  H   H50       1.0  0.39000  0.44980  0.81320  1.0000
  H   H51       1.0  0.11000  0.94980  0.68680  1.0000
  H   H52       1.0  0.89000  0.94980  0.81320  1.0000
  H   H53       1.0  0.39000  0.55020  0.31320  1.0000
  H   H54       1.0  0.61000  0.55020  0.18680  1.0000
  H   H55       1.0  0.89000  0.05020  0.31320  1.0000
  H   H56       1.0  0.11000  0.05020  0.18680  1.0000
  C   C161      1.0  0.67240  0.46270  0.71400  1.0000
  C   C162      1.0  0.32760  0.46270  0.78600  1.0000
  C   C163      1.0  0.17240  0.96270  0.71400  1.0000
  C   C164      1.0  0.82760  0.96270  0.78600  1.0000
  C   C165      1.0  0.32760  0.53730  0.28600  1.0000
  C   C166      1.0  0.67240  0.53730  0.21400  1.0000
  C   C167      1.0  0.82760  0.03730  0.28600  1.0000
  C   C168      1.0  0.17240  0.03730  0.21400  1.0000
  C   C169      1.0  0.71440  0.42580  0.71900  1.0000
  C   C170      1.0  0.28560  0.42580  0.78100  1.0000
  C   C171      1.0  0.21440  0.92580  0.71900  1.0000
  C   C172      1.0  0.78560  0.92580  0.78100  1.0000
  C   C173      1.0  0.28560  0.57420  0.28100  1.0000
  C   C174      1.0  0.71440  0.57420  0.21900  1.0000
  C   C175      1.0  0.78560  0.07420  0.28100  1.0000
  C   C176      1.0  0.21440  0.07420  0.21900  1.0000
  H   H57       1.0  0.73900  0.45240  0.73330  1.0000
  H   H58       1.0  0.26100  0.45240  0.76670  1.0000
  H   H59       1.0  0.23900  0.95240  0.73330  1.0000
  H   H60       1.0  0.76100  0.95240  0.76670  1.0000
  H   H61       1.0  0.26100  0.54760  0.26670  1.0000
  H   H62       1.0  0.73900  0.54760  0.23330  1.0000
  H   H63       1.0  0.76100  0.04760  0.26670  1.0000
  H   H64       1.0  0.23900  0.04760  0.23330  1.0000
  C   C177      1.0  0.71900  0.34780  0.70220  1.0000
  C   C178      1.0  0.28100  0.34780  0.79780  1.0000
  C   C179      1.0  0.21900  0.84780  0.70220  1.0000
  C   C180      1.0  0.78100  0.84780  0.79780  1.0000
  C   C181      1.0  0.28100  0.65220  0.29780  1.0000
  C   C182      1.0  0.71900  0.65220  0.20220  1.0000
  C   C183      1.0  0.78100  0.15220  0.29780  1.0000
  C   C184      1.0  0.21900  0.15220  0.20220  1.0000
  C   C185      1.0  0.68260  0.31040  0.67880  1.0000
  C   C186      1.0  0.31740  0.31040  0.82120  1.0000
  C   C187      1.0  0.18260  0.81040  0.67880  1.0000
  C   C188      1.0  0.81740  0.81040  0.82120  1.0000
  C   C189      1.0  0.31740  0.68960  0.32120  1.0000
  C   C190      1.0  0.68260  0.68960  0.17880  1.0000
  C   C191      1.0  0.81740  0.18960  0.32120  1.0000
  C   C192      1.0  0.18260  0.18960  0.17880  1.0000
  H   H65       1.0  0.68560  0.25990  0.66710  1.0000
  H   H66       1.0  0.31440  0.25990  0.83290  1.0000
  H   H67       1.0  0.18560  0.75990  0.66710  1.0000
  H   H68       1.0  0.81440  0.75990  0.83290  1.0000
  H   H69       1.0  0.31440  0.74010  0.33290  1.0000
  H   H70       1.0  0.68560  0.74010  0.16710  1.0000
  H   H71       1.0  0.81440  0.24010  0.33290  1.0000
  H   H72       1.0  0.18560  0.24010  0.16710  1.0000
  C   C193      1.0  0.60280  0.31150  0.64440  1.0000
  C   C194      1.0  0.39720  0.31150  0.85560  1.0000
  C   C195      1.0  0.10280  0.81150  0.64440  1.0000
  C   C196      1.0  0.89720  0.81150  0.85560  1.0000
  C   C197      1.0  0.39720  0.68850  0.35560  1.0000
  C   C198      1.0  0.60280  0.68850  0.14440  1.0000
  C   C199      1.0  0.89720  0.18850  0.35560  1.0000
  C   C200      1.0  0.10280  0.18850  0.14440  1.0000
  C   C201      1.0  0.66680  0.54540  0.73250  1.0000
  C   C202      1.0  0.33320  0.54540  0.76750  1.0000
  C   C203      1.0  0.16680  0.04540  0.73250  1.0000
  C   C204      1.0  0.83320  0.04540  0.76750  1.0000
  C   C205      1.0  0.33320  0.45460  0.26750  1.0000
  C   C206      1.0  0.66680  0.45460  0.23250  1.0000
  C   C207      1.0  0.83320  0.95460  0.26750  1.0000
  C   C208      1.0  0.16680  0.95460  0.23250  1.0000
  C   C209      1.0  0.76380  0.31200  0.70630  1.0000
  C   C210      1.0  0.23620  0.31200  0.79370  1.0000
  C   C211      1.0  0.26380  0.81200  0.70630  1.0000
  C   C212      1.0  0.73620  0.81200  0.79370  1.0000
  C   C213      1.0  0.23620  0.68800  0.29370  1.0000
  C   C214      1.0  0.76380  0.68800  0.20630  1.0000
  C   C215      1.0  0.73620  0.18800  0.29370  1.0000
  C   C216      1.0  0.26380  0.18800  0.20630  1.0000
  C   C217      1.0  0.43250  0.17630  0.60420  1.0000
  C   C218      1.0  0.56750  0.17630  0.89580  1.0000
  C   C219      1.0  0.93250  0.67630  0.60420  1.0000
  C   C220      1.0  0.06750  0.67630  0.89580  1.0000
  C   C221      1.0  0.56750  0.82370  0.39580  1.0000
  C   C222      1.0  0.43250  0.82370  0.10420  1.0000
  C   C223      1.0  0.06750  0.32370  0.39580  1.0000
  C   C224      1.0  0.93250  0.32370  0.10420  1.0000
  C   C225      1.0  0.43130  0.10520  0.62700  1.0000
  C   C226      1.0  0.56870  0.10520  0.87300  1.0000
  C   C227      1.0  0.93130  0.60520  0.62700  1.0000
  C   C228      1.0  0.06870  0.60520  0.87300  1.0000
  C   C229      1.0  0.56870  0.89480  0.37300  1.0000
  C   C230      1.0  0.43130  0.89480  0.12700  1.0000
  C   C231      1.0  0.06870  0.39480  0.37300  1.0000
  C   C232      1.0  0.93130  0.39480  0.12700  1.0000
  H   H73       1.0  0.45780  0.08290  0.63980  1.0000
  H   H74       1.0  0.54220  0.08290  0.86020  1.0000
  H   H75       1.0  0.95780  0.58290  0.63980  1.0000
  H   H76       1.0  0.04220  0.58290  0.86020  1.0000
  H   H77       1.0  0.54220  0.91710  0.36020  1.0000
  H   H78       1.0  0.45780  0.91710  0.13980  1.0000
  H   H79       1.0  0.04220  0.41710  0.36020  1.0000
  H   H80       1.0  0.95780  0.41710  0.13980  1.0000
  C   C233      1.0  0.39220  0.06590  0.63150  1.0000
  C   C234      1.0  0.60780  0.06590  0.86850  1.0000
  C   C235      1.0  0.89220  0.56590  0.63150  1.0000
  C   C236      1.0  0.10780  0.56590  0.86850  1.0000
  C   C237      1.0  0.60780  0.93410  0.36850  1.0000
  C   C238      1.0  0.39220  0.93410  0.13150  1.0000
  C   C239      1.0  0.10780  0.43410  0.36850  1.0000
  C   C240      1.0  0.89220  0.43410  0.13150  1.0000
  C   C241      1.0  0.35380  0.09920  0.61020  1.0000
  C   C242      1.0  0.64620  0.09920  0.88980  1.0000
  C   C243      1.0  0.85380  0.59920  0.61020  1.0000
  C   C244      1.0  0.14620  0.59920  0.88980  1.0000
  C   C245      1.0  0.64620  0.90080  0.38980  1.0000
  C   C246      1.0  0.35380  0.90080  0.11020  1.0000
  C   C247      1.0  0.14620  0.40080  0.38980  1.0000
  C   C248      1.0  0.85380  0.40080  0.11020  1.0000
  H   H81       1.0  0.32680  0.07370  0.61230  1.0000
  H   H82       1.0  0.67320  0.07370  0.88770  1.0000
  H   H83       1.0  0.82680  0.57370  0.61230  1.0000
  H   H84       1.0  0.17320  0.57370  0.88770  1.0000
  H   H85       1.0  0.67320  0.92630  0.38770  1.0000
  H   H86       1.0  0.32680  0.92630  0.11230  1.0000
  H   H87       1.0  0.17320  0.42630  0.38770  1.0000
  H   H88       1.0  0.82680  0.42630  0.11230  1.0000
  C   C249      1.0  0.35450  0.17000  0.58560  1.0000
  C   C250      1.0  0.64550  0.17000  0.91440  1.0000
  C   C251      1.0  0.85450  0.67000  0.58560  1.0000
  C   C252      1.0  0.14550  0.67000  0.91440  1.0000
  C   C253      1.0  0.64550  0.83000  0.41440  1.0000
  C   C254      1.0  0.35450  0.83000  0.08560  1.0000
  C   C255      1.0  0.14550  0.33000  0.41440  1.0000
  C   C256      1.0  0.85450  0.33000  0.08560  1.0000
  C   C257      1.0  0.39350  0.20860  0.58360  1.0000
  C   C258      1.0  0.60650  0.20860  0.91640  1.0000
  C   C259      1.0  0.89350  0.70860  0.58360  1.0000
  C   C260      1.0  0.10650  0.70860  0.91640  1.0000
  C   C261      1.0  0.60650  0.79140  0.41640  1.0000
  C   C262      1.0  0.39350  0.79140  0.08360  1.0000
  C   C263      1.0  0.10650  0.29140  0.41640  1.0000
  C   C264      1.0  0.89350  0.29140  0.08360  1.0000
  H   H89       1.0  0.39400  0.25700  0.56840  1.0000
  H   H90       1.0  0.60600  0.25700  0.93160  1.0000
  H   H91       1.0  0.89400  0.75700  0.56840  1.0000
  H   H92       1.0  0.10600  0.75700  0.93160  1.0000
  H   H93       1.0  0.60600  0.74300  0.43160  1.0000
  H   H94       1.0  0.39400  0.74300  0.06840  1.0000
  H   H95       1.0  0.10600  0.24300  0.43160  1.0000
  H   H96       1.0  0.89400  0.24300  0.06840  1.0000
  C   C265      1.0  0.47560  0.21800  0.59930  1.0000
  C   C266      1.0  0.52440  0.21800  0.90070  1.0000
  C   C267      1.0  0.97560  0.71800  0.59930  1.0000
  C   C268      1.0  0.02440  0.71800  0.90070  1.0000
  C   C269      1.0  0.52440  0.78200  0.40070  1.0000
  C   C270      1.0  0.47560  0.78200  0.09930  1.0000
  C   C271      1.0  0.02440  0.28200  0.40070  1.0000
  C   C272      1.0  0.97560  0.28200  0.09930  1.0000
  C   C273      1.0  0.39000  0.99230  0.65880  1.0000
  C   C274      1.0  0.61000  0.99230  0.84120  1.0000
  C   C275      1.0  0.89000  0.49230  0.65880  1.0000
  C   C276      1.0  0.11000  0.49230  0.84120  1.0000
  C   C277      1.0  0.61000  0.00770  0.34120  1.0000
  C   C278      1.0  0.39000  0.00770  0.15880  1.0000
  C   C279      1.0  0.11000  0.50770  0.34120  1.0000
  C   C280      1.0  0.89000  0.50770  0.15880  1.0000
  C   C281      1.0  0.31190  0.20230  0.56040  1.0000
  C   C282      1.0  0.68810  0.20230  0.93960  1.0000
  C   C283      1.0  0.81190  0.70230  0.56040  1.0000
  C   C284      1.0  0.18810  0.70230  0.93960  1.0000
  C   C285      1.0  0.68810  0.79770  0.43960  1.0000
  C   C286      1.0  0.31190  0.79770  0.06040  1.0000
  C   C287      1.0  0.18810  0.29770  0.43960  1.0000
  C   C288      1.0  0.81190  0.29770  0.06040  1.0000
  C   C289      1.0  0.47430  0.90810  0.51310  1.0000
  C   C290      1.0  0.52570  0.90810  0.98690  1.0000
  C   C291      1.0  0.97430  0.40810  0.51310  1.0000
  C   C292      1.0  0.02570  0.40810  0.98690  1.0000
  C   C293      1.0  0.52570  0.09190  0.48690  1.0000
  C   C294      1.0  0.47430  0.09190  0.01310  1.0000
  C   C295      1.0  0.02570  0.59190  0.48690  1.0000
  C   C296      1.0  0.97430  0.59190  0.01310  1.0000
  C   C297      1.0  0.50330  0.90100  0.59570  1.0000
  C   C298      1.0  0.49670  0.90100  0.90430  1.0000
  C   C299      1.0  0.00330  0.40100  0.59570  1.0000
  C   C300      1.0  0.99670  0.40100  0.90430  1.0000
  C   C301      1.0  0.49670  0.09900  0.40430  1.0000
  C   C302      1.0  0.50330  0.09900  0.09570  1.0000
  C   C303      1.0  0.99670  0.59900  0.40430  1.0000
  C   C304      1.0  0.00330  0.59900  0.09570  1.0000
  H   H97       1.0  0.53030  0.88800  0.61430  1.0000
  H   H98       1.0  0.46970  0.88800  0.88570  1.0000
  H   H99       1.0  0.03030  0.38800  0.61430  1.0000
  H   H100      1.0  0.96970  0.38800  0.88570  1.0000
  H   H101      1.0  0.46970  0.11200  0.38570  1.0000
  H   H102      1.0  0.53030  0.11200  0.11430  1.0000
  H   H103      1.0  0.96970  0.61200  0.38570  1.0000
  H   H104      1.0  0.03030  0.61200  0.11430  1.0000
  H   H105      1.0  0.49560  0.95500  0.60170  1.0000
  H   H106      1.0  0.50440  0.95500  0.89830  1.0000
  H   H107      1.0  0.99560  0.45500  0.60170  1.0000
  H   H108      1.0  0.00440  0.45500  0.89830  1.0000
  H   H109      1.0  0.50440  0.04500  0.39830  1.0000
  H   H110      1.0  0.49560  0.04500  0.10170  1.0000
  H   H111      1.0  0.00440  0.54500  0.39830  1.0000
  H   H112      1.0  0.99560  0.54500  0.10170  1.0000
  H   H113      1.0  0.47990  0.86730  0.60390  1.0000
  H   H114      1.0  0.52010  0.86730  0.89610  1.0000
  H   H115      1.0  0.97990  0.36730  0.60390  1.0000
  H   H116      1.0  0.02010  0.36730  0.89610  1.0000
  H   H117      1.0  0.52010  0.13270  0.39610  1.0000
  H   H118      1.0  0.47990  0.13270  0.10390  1.0000
  H   H119      1.0  0.02010  0.63270  0.39610  1.0000
  H   H120      1.0  0.97990  0.63270  0.10390  1.0000
  C   C305      1.0  0.54530  0.84300  0.53250  1.0000
  C   C306      1.0  0.45470  0.84300  0.96750  1.0000
  C   C307      1.0  0.04530  0.34300  0.53250  1.0000
  C   C308      1.0  0.95470  0.34300  0.96750  1.0000
  C   C309      1.0  0.45470  0.15700  0.46750  1.0000
  C   C310      1.0  0.54530  0.15700  0.03250  1.0000
  C   C311      1.0  0.95470  0.65700  0.46750  1.0000
  C   C312      1.0  0.04530  0.65700  0.03250  1.0000
  H   H121      1.0  0.56710  0.83670  0.55890  1.0000
  H   H122      1.0  0.43290  0.83670  0.94110  1.0000
  H   H123      1.0  0.06710  0.33670  0.55890  1.0000
  H   H124      1.0  0.93290  0.33670  0.94110  1.0000
  H   H125      1.0  0.43290  0.16330  0.44110  1.0000
  H   H126      1.0  0.56710  0.16330  0.05890  1.0000
  H   H127      1.0  0.93290  0.66330  0.44110  1.0000
  H   H128      1.0  0.06710  0.66330  0.05890  1.0000
  H   H129      1.0  0.53380  0.79200  0.52280  1.0000
  H   H130      1.0  0.46620  0.79200  0.97720  1.0000
  H   H131      1.0  0.03380  0.29200  0.52280  1.0000
  H   H132      1.0  0.96620  0.29200  0.97720  1.0000
  H   H133      1.0  0.46620  0.20800  0.47720  1.0000
  H   H134      1.0  0.53380  0.20800  0.02280  1.0000
  H   H135      1.0  0.96620  0.70800  0.47720  1.0000
  H   H136      1.0  0.03380  0.70800  0.02280  1.0000
  H   H137      1.0  0.55860  0.86700  0.50680  1.0000
  H   H138      1.0  0.44140  0.86700  0.99320  1.0000
  H   H139      1.0  0.05860  0.36700  0.50680  1.0000
  H   H140      1.0  0.94140  0.36700  0.99320  1.0000
  H   H141      1.0  0.44140  0.13300  0.49320  1.0000
  H   H142      1.0  0.55860  0.13300  0.00680  1.0000
  H   H143      1.0  0.94140  0.63300  0.49320  1.0000
  H   H144      1.0  0.05860  0.63300  0.00680  1.0000
  C   C313      1.0  0.33510  0.58500  0.94300  1.0000
  C   C314      1.0  0.66490  0.58500  0.55700  1.0000
  C   C315      1.0  0.83510  0.08500  0.94300  1.0000
  C   C316      1.0  0.16490  0.08500  0.55700  1.0000
  C   C317      1.0  0.66490  0.41500  0.05700  1.0000
  C   C318      1.0  0.33510  0.41500  0.44300  1.0000
  C   C319      1.0  0.16490  0.91500  0.05700  1.0000
  C   C320      1.0  0.83510  0.91500  0.44300  1.0000
  C   C321      1.0  0.40640  0.58200  0.99040  1.0000
  C   C322      1.0  0.59360  0.58200  0.50960  1.0000
  C   C323      1.0  0.90640  0.08200  0.99040  1.0000
  C   C324      1.0  0.09360  0.08200  0.50960  1.0000
  C   C325      1.0  0.59360  0.41800  0.00960  1.0000
  C   C326      1.0  0.40640  0.41800  0.49040  1.0000
  C   C327      1.0  0.09360  0.91800  0.00960  1.0000
  C   C328      1.0  0.90640  0.91800  0.49040  1.0000
  H   H145      1.0  0.43740  0.58010  0.98580  1.0000
  H   H146      1.0  0.56260  0.58010  0.51420  1.0000
  H   H147      1.0  0.93740  0.08010  0.98580  1.0000
  H   H148      1.0  0.06260  0.08010  0.51420  1.0000
  H   H149      1.0  0.56260  0.41990  0.01420  1.0000
  H   H150      1.0  0.43740  0.41990  0.48580  1.0000
  H   H151      1.0  0.06260  0.91990  0.01420  1.0000
  H   H152      1.0  0.93740  0.91990  0.48580  1.0000
  H   H153      1.0  0.40050  0.62960  0.00720  1.0000
  H   H154      1.0  0.59950  0.62960  0.49280  1.0000
  H   H155      1.0  0.90050  0.12960  0.00720  1.0000
  H   H156      1.0  0.09950  0.12960  0.49280  1.0000
  H   H157      1.0  0.59950  0.37040  0.99280  1.0000
  H   H158      1.0  0.40050  0.37040  0.50720  1.0000
  H   H159      1.0  0.09950  0.87040  0.99280  1.0000
  H   H160      1.0  0.90050  0.87040  0.50720  1.0000
  H   H161      1.0  0.39860  0.53740  0.00830  1.0000
  H   H162      1.0  0.60140  0.53740  0.49170  1.0000
  H   H163      1.0  0.89860  0.03740  0.00830  1.0000
  H   H164      1.0  0.10140  0.03740  0.49170  1.0000
  H   H165      1.0  0.60140  0.46260  0.99170  1.0000
  H   H166      1.0  0.39860  0.46260  0.50830  1.0000
  H   H167      1.0  0.10140  0.96260  0.99170  1.0000
  H   H168      1.0  0.89860  0.96260  0.50830  1.0000
  C   C329      1.0  0.40240  0.58300  0.90180  1.0000
  C   C330      1.0  0.59760  0.58300  0.59820  1.0000
  C   C331      1.0  0.90240  0.08300  0.90180  1.0000
  C   C332      1.0  0.09760  0.08300  0.59820  1.0000
  C   C333      1.0  0.59760  0.41700  0.09820  1.0000
  C   C334      1.0  0.40240  0.41700  0.40180  1.0000
  C   C335      1.0  0.09760  0.91700  0.09820  1.0000
  C   C336      1.0  0.90240  0.91700  0.40180  1.0000
  H   H169      1.0  0.43390  0.58030  0.90960  1.0000
  H   H170      1.0  0.56610  0.58030  0.59040  1.0000
  H   H171      1.0  0.93390  0.08030  0.90960  1.0000
  H   H172      1.0  0.06610  0.08030  0.59040  1.0000
  H   H173      1.0  0.56610  0.41970  0.09040  1.0000
  H   H174      1.0  0.43390  0.41970  0.40960  1.0000
  H   H175      1.0  0.06610  0.91970  0.09040  1.0000
  H   H176      1.0  0.93390  0.91970  0.40960  1.0000
  H   H177      1.0  0.39290  0.53790  0.88300  1.0000
  H   H178      1.0  0.60710  0.53790  0.61700  1.0000
  H   H179      1.0  0.89290  0.03790  0.88300  1.0000
  H   H180      1.0  0.10710  0.03790  0.61700  1.0000
  H   H181      1.0  0.60710  0.46210  0.11700  1.0000
  H   H182      1.0  0.39290  0.46210  0.38300  1.0000
  H   H183      1.0  0.10710  0.96210  0.11700  1.0000
  H   H184      1.0  0.89290  0.96210  0.38300  1.0000
  H   H185      1.0  0.39500  0.63000  0.88450  1.0000
  H   H186      1.0  0.60500  0.63000  0.61550  1.0000
  H   H187      1.0  0.89500  0.13000  0.88450  1.0000
  H   H188      1.0  0.10500  0.13000  0.61550  1.0000
  H   H189      1.0  0.60500  0.37000  0.11550  1.0000
  H   H190      1.0  0.39500  0.37000  0.38450  1.0000
  H   H191      1.0  0.10500  0.87000  0.11550  1.0000
  H   H192      1.0  0.89500  0.87000  0.38450  1.0000
  C   C337      1.0  0.31600  0.59200  0.89050  1.0000
  C   C338      1.0  0.68400  0.59200  0.60950  1.0000
  C   C339      1.0  0.81600  0.09200  0.89050  1.0000
  C   C340      1.0  0.18400  0.09200  0.60950  1.0000
  C   C341      1.0  0.68400  0.40800  0.10950  1.0000
  C   C342      1.0  0.31600  0.40800  0.39050  1.0000
  C   C343      1.0  0.18400  0.90800  0.10950  1.0000
  C   C344      1.0  0.81600  0.90800  0.39050  1.0000
  H   H193      1.0  0.28640  0.61300  0.88890  1.0000
  H   H194      1.0  0.71360  0.61300  0.61110  1.0000
  H   H195      1.0  0.78640  0.11300  0.88890  1.0000
  H   H196      1.0  0.21360  0.11300  0.61110  1.0000
  H   H197      1.0  0.71360  0.38700  0.11110  1.0000
  H   H198      1.0  0.28640  0.38700  0.38890  1.0000
  H   H199      1.0  0.21360  0.88700  0.11110  1.0000
  H   H200      1.0  0.78640  0.88700  0.38890  1.0000
  H   H201      1.0  0.31560  0.54150  0.87590  1.0000
  H   H202      1.0  0.68440  0.54150  0.62410  1.0000
  H   H203      1.0  0.81560  0.04150  0.87590  1.0000
  H   H204      1.0  0.18440  0.04150  0.62410  1.0000
  H   H205      1.0  0.68440  0.45850  0.12410  1.0000
  H   H206      1.0  0.31560  0.45850  0.37590  1.0000
  H   H207      1.0  0.18440  0.95850  0.12410  1.0000
  H   H208      1.0  0.81560  0.95850  0.37590  1.0000
  H   H209      1.0  0.33430  0.62730  0.87420  1.0000
  H   H210      1.0  0.66570  0.62730  0.62580  1.0000
  H   H211      1.0  0.83430  0.12730  0.87420  1.0000
  H   H212      1.0  0.16570  0.12730  0.62580  1.0000
  H   H213      1.0  0.66570  0.37270  0.12580  1.0000
  H   H214      1.0  0.33430  0.37270  0.37420  1.0000
  H   H215      1.0  0.16570  0.87270  0.12580  1.0000
  H   H216      1.0  0.83430  0.87270  0.37420  1.0000
  C   C345      1.0  0.43610  0.94600  0.53200  1.0000
  C   C346      1.0  0.56390  0.94600  0.96800  1.0000
  C   C347      1.0  0.93610  0.44600  0.53200  1.0000
  C   C348      1.0  0.06390  0.44600  0.96800  1.0000
  C   C349      1.0  0.56390  0.05400  0.46800  1.0000
  C   C350      1.0  0.43610  0.05400  0.03200  1.0000
  C   C351      1.0  0.06390  0.55400  0.46800  1.0000
  C   C352      1.0  0.93610  0.55400  0.03200  1.0000
  H   H217      1.0  0.42900  0.99390  0.51490  1.0000
  H   H218      1.0  0.57100  0.99390  0.98510  1.0000
  H   H219      1.0  0.92900  0.49390  0.51490  1.0000
  H   H220      1.0  0.07100  0.49390  0.98510  1.0000
  H   H221      1.0  0.57100  0.00610  0.48510  1.0000
  H   H222      1.0  0.42900  0.00610  0.01490  1.0000
  H   H223      1.0  0.07100  0.50610  0.48510  1.0000
  H   H224      1.0  0.92900  0.50610  0.01490  1.0000
  H   H225      1.0  0.44330  0.95810  0.56470  1.0000
  H   H226      1.0  0.55670  0.95810  0.93530  1.0000
  H   H227      1.0  0.94330  0.45810  0.56470  1.0000
  H   H228      1.0  0.05670  0.45810  0.93530  1.0000
  H   H229      1.0  0.55670  0.04190  0.43530  1.0000
  H   H230      1.0  0.44330  0.04190  0.06470  1.0000
  H   H231      1.0  0.05670  0.54190  0.43530  1.0000
  H   H232      1.0  0.94330  0.54190  0.06470  1.0000
  H   H233      1.0  0.41100  0.91130  0.52850  1.0000
  H   H234      1.0  0.58900  0.91130  0.97150  1.0000
  H   H235      1.0  0.91100  0.41130  0.52850  1.0000
  H   H236      1.0  0.08900  0.41130  0.97150  1.0000
  H   H237      1.0  0.58900  0.08870  0.47150  1.0000
  H   H238      1.0  0.41100  0.08870  0.02850  1.0000
  H   H239      1.0  0.08900  0.58870  0.47150  1.0000
  H   H240      1.0  0.91100  0.58870  0.02850  1.0000
