data_image0
_chemical_formula_structural       U4O28C4H4C4O4C8N4C16H4O4H4C4H4C8H4C4H4O4C4N4C8H4C4
_chemical_formula_sum              "U4 O40 C64 H28 N8"
_cell_length_a       9.2444
_cell_length_b       10.0594
_cell_length_c       21.0299
_cell_angle_alpha    90
_cell_angle_beta     98.681
_cell_angle_gamma    90

_space_group_name_H-M_alt    "P 1"
_space_group_IT_number       1

loop_
  _space_group_symop_operation_xyz
  'x, y, z'

loop_
  _atom_site_type_symbol
  _atom_site_label
  _atom_site_symmetry_multiplicity
  _atom_site_fract_x
  _atom_site_fract_y
  _atom_site_fract_z
  _atom_site_occupancy
  U   U1        1.0  0.34765  0.25917  0.78704  1.0000
  U   U2        1.0  0.15235  0.75917  0.71296  1.0000
  U   U3        1.0  0.65235  0.74083  0.21296  1.0000
  U   U4        1.0  0.84765  0.24083  0.28704  1.0000
  O   O1        1.0  0.58330  0.89640  0.28689  1.0000
  O   O2        1.0  0.91670  0.39640  0.21311  1.0000
  O   O3        1.0  0.41670  0.10360  0.71311  1.0000
  O   O4        1.0  0.08330  0.60360  0.78689  1.0000
  O   O5        1.0  0.24110  0.34270  0.68816  1.0000
  O   O6        1.0  0.25890  0.84270  0.81184  1.0000
  O   O7        1.0  0.75890  0.65730  0.31184  1.0000
  O   O8        1.0  0.74110  0.15730  0.18816  1.0000
  O   O9        1.0  0.19280  0.15930  0.79411  1.0000
  O   O10       1.0  0.30720  0.65930  0.70589  1.0000
  O   O11       1.0  0.80720  0.84070  0.20589  1.0000
  O   O12       1.0  0.69280  0.34070  0.29411  1.0000
  O   O13       1.0  0.02090  0.39700  0.34866  1.0000
  O   O14       1.0  0.47910  0.89700  0.15134  1.0000
  O   O15       1.0  0.97910  0.60300  0.65134  1.0000
  O   O16       1.0  0.52090  0.10300  0.84866  1.0000
  O   O17       1.0  0.05620  0.21660  0.64365  1.0000
  O   O18       1.0  0.44380  0.71660  0.85635  1.0000
  O   O19       1.0  0.94380  0.78340  0.35635  1.0000
  O   O20       1.0  0.55620  0.28340  0.14365  1.0000
  O   O21       1.0  0.92630  0.24200  0.40274  1.0000
  O   O22       1.0  0.57370  0.74200  0.09726  1.0000
  O   O23       1.0  0.07370  0.75800  0.59726  1.0000
  O   O24       1.0  0.42630  0.25800  0.90274  1.0000
  O   O25       1.0  0.72370  0.06470  0.32468  1.0000
  O   O26       1.0  0.77630  0.56470  0.17532  1.0000
  O   O27       1.0  0.27630  0.93530  0.67532  1.0000
  O   O28       1.0  0.22370  0.43530  0.82468  1.0000
  C   C1        1.0  0.26620  0.47140  0.57568  1.0000
  C   C2        1.0  0.23380  0.97140  0.92432  1.0000
  C   C3        1.0  0.73380  0.52860  0.42432  1.0000
  C   C4        1.0  0.76620  0.02860  0.07568  1.0000
  H   H1        1.0  0.32260  0.50100  0.61460  1.0000
  H   H2        1.0  0.17740  0.00100  0.88540  1.0000
  H   H3        1.0  0.67740  0.49900  0.38540  1.0000
  H   H4        1.0  0.82260  0.99900  0.11460  1.0000
  C   C5        1.0  0.14940  0.30350  0.64040  1.0000
  C   C6        1.0  0.35060  0.80350  0.85960  1.0000
  C   C7        1.0  0.85060  0.69650  0.35960  1.0000
  C   C8        1.0  0.64940  0.19650  0.14040  1.0000
  O   O29       1.0  0.50020  0.36060  0.77910  1.0000
  O   O30       1.0  0.99980  0.86060  0.72090  1.0000
  O   O31       1.0  0.49980  0.63940  0.22090  1.0000
  O   O32       1.0  0.00020  0.13940  0.27910  1.0000
  C   C9        1.0  0.01220  0.33950  0.40122  1.0000
  C   C10       1.0  0.48780  0.83950  0.09878  1.0000
  C   C11       1.0  0.98780  0.66050  0.59878  1.0000
  C   C12       1.0  0.51220  0.16050  0.90122  1.0000
  C   C13       1.0  0.16610  0.36830  0.57723  1.0000
  C   C14       1.0  0.33390  0.86830  0.92277  1.0000
  C   C15       1.0  0.83390  0.63170  0.42277  1.0000
  C   C16       1.0  0.66610  0.13170  0.07723  1.0000
  N   N1        1.0  0.39190  0.63600  0.52197  1.0000
  N   N2        1.0  0.10810  0.13600  0.97803  1.0000
  N   N3        1.0  0.60810  0.36400  0.47803  1.0000
  N   N4        1.0  0.89190  0.86400  0.02197  1.0000
  C   C17       1.0  0.63180  0.92530  0.39950  1.0000
  C   C18       1.0  0.86820  0.42530  0.10050  1.0000
  C   C19       1.0  0.36820  0.07470  0.60050  1.0000
  C   C20       1.0  0.13180  0.57470  0.89950  1.0000
  C   C21       1.0  0.64740  0.96700  0.33201  1.0000
  C   C22       1.0  0.85260  0.46700  0.16799  1.0000
  C   C23       1.0  0.35260  0.03300  0.66799  1.0000
  C   C24       1.0  0.14740  0.53300  0.83201  1.0000
  C   C25       1.0  0.10280  0.38540  0.46200  1.0000
  C   C26       1.0  0.39720  0.88540  0.03800  1.0000
  C   C27       1.0  0.89720  0.61460  0.53800  1.0000
  C   C28       1.0  0.60280  0.11460  0.96200  1.0000
  C   C29       1.0  0.59690  0.84170  0.52298  1.0000
  C   C30       1.0  0.90310  0.34170  0.97702  1.0000
  C   C31       1.0  0.40310  0.15830  0.47702  1.0000
  C   C32       1.0  0.09690  0.65830  0.02298  1.0000
  H   H5        1.0  0.58480  0.81350  0.56500  1.0000
  H   H6        1.0  0.91520  0.31350  0.93500  1.0000
  H   H7        1.0  0.41520  0.18650  0.43500  1.0000
  H   H8        1.0  0.08480  0.68650  0.06500  1.0000
  O   O33       1.0  0.88900  0.07790  0.55761  1.0000
  O   O34       1.0  0.61100  0.57790  0.94239  1.0000
  O   O35       1.0  0.11100  0.92210  0.44239  1.0000
  O   O36       1.0  0.38900  0.42210  0.05761  1.0000
  H   H9        1.0  0.93230  0.11480  0.59100  1.0000
  H   H10       1.0  0.56770  0.61480  0.90900  1.0000
  H   H11       1.0  0.06770  0.88520  0.40900  1.0000
  H   H12       1.0  0.43230  0.38520  0.09100  1.0000
  C   C33       1.0  0.20220  0.48870  0.46073  1.0000
  C   C34       1.0  0.29780  0.98870  0.03927  1.0000
  C   C35       1.0  0.79780  0.51130  0.53927  1.0000
  C   C36       1.0  0.70220  0.01130  0.96073  1.0000
  H   H13       1.0  0.21390  0.52980  0.42110  1.0000
  H   H14       1.0  0.28610  0.02980  0.07890  1.0000
  H   H15       1.0  0.78610  0.47020  0.57890  1.0000
  H   H16       1.0  0.71390  0.97020  0.92110  1.0000
  C   C37       1.0  0.28480  0.53140  0.51818  1.0000
  C   C38       1.0  0.21520  0.03140  0.98182  1.0000
  C   C39       1.0  0.71520  0.46860  0.48182  1.0000
  C   C40       1.0  0.78480  0.96860  0.01818  1.0000
  C   C41       1.0  0.53350  0.82490  0.40777  1.0000
  C   C42       1.0  0.96650  0.32490  0.09223  1.0000
  C   C43       1.0  0.46650  0.17510  0.59223  1.0000
  C   C44       1.0  0.03350  0.67510  0.90777  1.0000
  H   H17       1.0  0.47840  0.78420  0.37110  1.0000
  H   H18       1.0  0.02160  0.28420  0.12890  1.0000
  H   H19       1.0  0.52160  0.21580  0.62890  1.0000
  H   H20       1.0  0.97840  0.71580  0.87110  1.0000
  C   C45       1.0  0.08510  0.32550  0.51994  1.0000
  C   C46       1.0  0.41490  0.82550  0.98006  1.0000
  C   C47       1.0  0.91490  0.67450  0.48006  1.0000
  C   C48       1.0  0.58510  0.17450  0.01994  1.0000
  H   H21       1.0  0.01700  0.25480  0.52030  1.0000
  H   H22       1.0  0.48300  0.75480  0.97970  1.0000
  H   H23       1.0  0.98300  0.74520  0.47970  1.0000
  H   H24       1.0  0.51700  0.24520  0.02030  1.0000
  O   O37       1.0  0.75570  0.98960  0.62679  1.0000
  O   O38       1.0  0.74430  0.48960  0.87321  1.0000
  O   O39       1.0  0.24430  0.01040  0.37321  1.0000
  O   O40       1.0  0.25570  0.51040  0.12679  1.0000
  C   C49       1.0  0.51470  0.78310  0.46882  1.0000
  C   C50       1.0  0.98530  0.28310  0.03118  1.0000
  C   C51       1.0  0.48530  0.21690  0.53118  1.0000
  C   C52       1.0  0.01470  0.71690  0.96882  1.0000
  N   N5        1.0  0.40910  0.67960  0.46872  1.0000
  N   N6        1.0  0.09090  0.17960  0.03128  1.0000
  N   N7        1.0  0.59090  0.32040  0.53128  1.0000
  N   N8        1.0  0.90910  0.82040  0.96872  1.0000
  C   C53       1.0  0.69610  0.94150  0.51476  1.0000
  C   C54       1.0  0.80390  0.44150  0.98524  1.0000
  C   C55       1.0  0.30390  0.05850  0.48524  1.0000
  C   C56       1.0  0.19610  0.55850  0.01476  1.0000
  C   C57       1.0  0.71410  0.98440  0.45300  1.0000
  C   C58       1.0  0.78590  0.48440  0.04700  1.0000
  C   C59       1.0  0.28590  0.01560  0.54700  1.0000
  C   C60       1.0  0.21410  0.51560  0.95300  1.0000
  H   H25       1.0  0.78170  0.05320  0.44770  1.0000
  H   H26       1.0  0.71830  0.55320  0.05230  1.0000
  H   H27       1.0  0.21830  0.94680  0.55230  1.0000
  H   H28       1.0  0.28170  0.44680  0.94770  1.0000
  C   C61       1.0  0.78240  0.00370  0.57242  1.0000
  C   C62       1.0  0.71760  0.50370  0.92758  1.0000
  C   C63       1.0  0.21760  0.99630  0.42758  1.0000
  C   C64       1.0  0.28240  0.49630  0.07242  1.0000
