data_image0
_chemical_formula_structural       Cd4O16C16O4C4H4C4H12O8C8H4C8H4N4C4H4C4H12
_chemical_formula_sum              "Cd4 O28 C48 H40 N4"
_cell_length_a       18.2988
_cell_length_b       8.929
_cell_length_c       15.5317
_cell_angle_alpha    90
_cell_angle_beta     90
_cell_angle_gamma    90

_space_group_name_H-M_alt    "P 1"
_space_group_IT_number       1

loop_
  _space_group_symop_operation_xyz
  'x, y, z'

loop_
  _atom_site_type_symbol
  _atom_site_label
  _atom_site_symmetry_multiplicity
  _atom_site_fract_x
  _atom_site_fract_y
  _atom_site_fract_z
  _atom_site_occupancy
  Cd  Cd1       1.0  0.42416  0.27667  0.15501  1.0000
  Cd  Cd2       1.0  0.57584  0.72333  0.65501  1.0000
  Cd  Cd3       1.0  0.92416  0.72333  0.15501  1.0000
  Cd  Cd4       1.0  0.07584  0.27667  0.65501  1.0000
  O   O1        1.0  0.56415  0.33880  0.15510  1.0000
  O   O2        1.0  0.43585  0.66120  0.65510  1.0000
  O   O3        1.0  0.06415  0.66120  0.15510  1.0000
  O   O4        1.0  0.93585  0.33880  0.65510  1.0000
  O   O5        1.0  0.44470  0.02180  0.15880  1.0000
  O   O6        1.0  0.55530  0.97820  0.65880  1.0000
  O   O7        1.0  0.94470  0.97820  0.15880  1.0000
  O   O8        1.0  0.05530  0.02180  0.65880  1.0000
  O   O9        1.0  0.82770  0.77050  0.06030  1.0000
  O   O10       1.0  0.17230  0.22950  0.56030  1.0000
  O   O11       1.0  0.32770  0.22950  0.06030  1.0000
  O   O12       1.0  0.67230  0.77050  0.56030  1.0000
  O   O13       1.0  0.66890  0.79130  0.79480  1.0000
  O   O14       1.0  0.33110  0.20870  0.29480  1.0000
  O   O15       1.0  0.16890  0.20870  0.79480  1.0000
  O   O16       1.0  0.83110  0.79130  0.29480  1.0000
  C   C1        1.0  0.79610  0.64970  0.07910  1.0000
  C   C2        1.0  0.20390  0.35030  0.57910  1.0000
  C   C3        1.0  0.29610  0.35030  0.07910  1.0000
  C   C4        1.0  0.70390  0.64970  0.57910  1.0000
  C   C5        1.0  0.72370  0.61470  0.03640  1.0000
  C   C6        1.0  0.27630  0.38530  0.53640  1.0000
  C   C7        1.0  0.22370  0.38530  0.03640  1.0000
  C   C8        1.0  0.77630  0.61470  0.53640  1.0000
  C   C9        1.0  0.62590  0.70170  0.82760  1.0000
  C   C10       1.0  0.37410  0.29830  0.32760  1.0000
  C   C11       1.0  0.12590  0.29830  0.82760  1.0000
  C   C12       1.0  0.87410  0.70170  0.32760  1.0000
  C   C13       1.0  0.55020  0.39610  0.08470  1.0000
  C   C14       1.0  0.44980  0.60390  0.58470  1.0000
  C   C15       1.0  0.05020  0.60390  0.08470  1.0000
  C   C16       1.0  0.94980  0.39610  0.58470  1.0000
  O   O17       1.0  0.48851  0.38440  0.04900  1.0000
  O   O18       1.0  0.51149  0.61560  0.54900  1.0000
  O   O19       1.0  0.98851  0.61560  0.04900  1.0000
  O   O20       1.0  0.01149  0.38440  0.54900  1.0000
  C   C17       1.0  0.70680  0.67370  0.95690  1.0000
  C   C18       1.0  0.29320  0.32630  0.45690  1.0000
  C   C19       1.0  0.20680  0.32630  0.95690  1.0000
  C   C20       1.0  0.79320  0.67370  0.45690  1.0000
  H   H1        1.0  0.73980  0.73830  0.93040  1.0000
  H   H2        1.0  0.26020  0.26170  0.43040  1.0000
  H   H3        1.0  0.23980  0.26170  0.93040  1.0000
  H   H4        1.0  0.76020  0.73830  0.43040  1.0000
  C   C21       1.0  0.46210  0.71090  0.16430  1.0000
  C   C22       1.0  0.53790  0.28910  0.66430  1.0000
  C   C23       1.0  0.96210  0.28910  0.16430  1.0000
  C   C24       1.0  0.03790  0.71090  0.66430  1.0000
  H   H5        1.0  0.49170  0.77770  0.13070  1.0000
  H   H6        1.0  0.50830  0.22230  0.63070  1.0000
  H   H7        1.0  0.99170  0.22230  0.13070  1.0000
  H   H8        1.0  0.00830  0.77770  0.63070  1.0000
  H   H9        1.0  0.43750  0.64190  0.12680  1.0000
  H   H10       1.0  0.56250  0.35810  0.62680  1.0000
  H   H11       1.0  0.93750  0.35810  0.12680  1.0000
  H   H12       1.0  0.06250  0.64190  0.62680  1.0000
  H   H13       1.0  0.49270  0.65640  0.20360  1.0000
  H   H14       1.0  0.50730  0.34360  0.70360  1.0000
  H   H15       1.0  0.99270  0.34360  0.20360  1.0000
  H   H16       1.0  0.00730  0.65640  0.70360  1.0000
  O   O21       1.0  0.56941  0.65440  0.79060  1.0000
  O   O22       1.0  0.43059  0.34560  0.29060  1.0000
  O   O23       1.0  0.06941  0.34560  0.79060  1.0000
  O   O24       1.0  0.93059  0.65440  0.29060  1.0000
  O   O25       1.0  0.82217  0.55750  0.13100  1.0000
  O   O26       1.0  0.17783  0.44250  0.63100  1.0000
  O   O27       1.0  0.32217  0.44250  0.13100  1.0000
  O   O28       1.0  0.67783  0.55750  0.63100  1.0000
  C   C25       1.0  0.60770  0.48870  0.03860  1.0000
  C   C26       1.0  0.39230  0.51130  0.53860  1.0000
  C   C27       1.0  0.10770  0.51130  0.03860  1.0000
  C   C28       1.0  0.89230  0.48870  0.53860  1.0000
  C   C29       1.0  0.59290  0.54450  0.95670  1.0000
  C   C30       1.0  0.40710  0.45550  0.45670  1.0000
  C   C31       1.0  0.09290  0.45550  0.95670  1.0000
  C   C32       1.0  0.90710  0.54450  0.45670  1.0000
  H   H17       1.0  0.54960  0.51800  0.92920  1.0000
  H   H18       1.0  0.45040  0.48200  0.42920  1.0000
  H   H19       1.0  0.04960  0.48200  0.92920  1.0000
  H   H20       1.0  0.95040  0.51800  0.42920  1.0000
  C   C33       1.0  0.64210  0.63930  0.91550  1.0000
  C   C34       1.0  0.35790  0.36070  0.41550  1.0000
  C   C35       1.0  0.14210  0.36070  0.91550  1.0000
  C   C36       1.0  0.85790  0.63930  0.41550  1.0000
  C   C37       1.0  0.40440  0.94370  0.20390  1.0000
  C   C38       1.0  0.59560  0.05630  0.70390  1.0000
  C   C39       1.0  0.90440  0.05630  0.20390  1.0000
  C   C40       1.0  0.09560  0.94370  0.70390  1.0000
  H   H21       1.0  0.36790  0.99270  0.23460  1.0000
  H   H22       1.0  0.63210  0.00730  0.73460  1.0000
  H   H23       1.0  0.86790  0.00730  0.23460  1.0000
  H   H24       1.0  0.13210  0.99270  0.73460  1.0000
  N   N1        1.0  0.40840  0.79660  0.21250  1.0000
  N   N2        1.0  0.59160  0.20340  0.71250  1.0000
  N   N3        1.0  0.90840  0.20340  0.21250  1.0000
  N   N4        1.0  0.09160  0.79660  0.71250  1.0000
  C   C41       1.0  0.67430  0.52130  0.07670  1.0000
  C   C42       1.0  0.32570  0.47870  0.57670  1.0000
  C   C43       1.0  0.17430  0.47870  0.07670  1.0000
  C   C44       1.0  0.82570  0.52130  0.57670  1.0000
  H   H25       1.0  0.68580  0.47990  0.13000  1.0000
  H   H26       1.0  0.31420  0.52010  0.63000  1.0000
  H   H27       1.0  0.18580  0.52010  0.13000  1.0000
  H   H28       1.0  0.81420  0.47990  0.63000  1.0000
  C   C45       1.0  0.35840  0.71420  0.26840  1.0000
  C   C46       1.0  0.64160  0.28580  0.76840  1.0000
  C   C47       1.0  0.85840  0.28580  0.26840  1.0000
  C   C48       1.0  0.14160  0.71420  0.76840  1.0000
  H   H29       1.0  0.32600  0.78330  0.29660  1.0000
  H   H30       1.0  0.67400  0.21670  0.79660  1.0000
  H   H31       1.0  0.82600  0.21670  0.29660  1.0000
  H   H32       1.0  0.17400  0.78330  0.79660  1.0000
  H   H33       1.0  0.38580  0.66010  0.31090  1.0000
  H   H34       1.0  0.61420  0.33990  0.81090  1.0000
  H   H35       1.0  0.88580  0.33990  0.31090  1.0000
  H   H36       1.0  0.11420  0.66010  0.81090  1.0000
  H   H37       1.0  0.33030  0.64500  0.23460  1.0000
  H   H38       1.0  0.66970  0.35500  0.73460  1.0000
  H   H39       1.0  0.83030  0.35500  0.23460  1.0000
  H   H40       1.0  0.16970  0.64500  0.73460  1.0000
