data_image0
_chemical_formula_structural       Zn8O72N8C16H8C16H8C36H4C20H4C8H8
_chemical_formula_sum              "Zn8 O72 N8 C96 H32"
_cell_length_a       26.511
_cell_length_b       7.4558
_cell_length_c       19.432
_cell_angle_alpha    90
_cell_angle_beta     105.763
_cell_angle_gamma    90

_space_group_name_H-M_alt    "P 1"
_space_group_IT_number       1

loop_
  _space_group_symop_operation_xyz
  'x, y, z'

loop_
  _atom_site_type_symbol
  _atom_site_label
  _atom_site_symmetry_multiplicity
  _atom_site_fract_x
  _atom_site_fract_y
  _atom_site_fract_z
  _atom_site_occupancy
  Zn  Zn1       1.0  0.37471  0.66520  0.32302  1.0000
  Zn  Zn2       1.0  0.62529  0.66520  0.17698  1.0000
  Zn  Zn3       1.0  0.87471  0.16520  0.32302  1.0000
  Zn  Zn4       1.0  0.12529  0.16520  0.17698  1.0000
  Zn  Zn5       1.0  0.62529  0.33480  0.67698  1.0000
  Zn  Zn6       1.0  0.37471  0.33480  0.82302  1.0000
  Zn  Zn7       1.0  0.12529  0.83480  0.67698  1.0000
  Zn  Zn8       1.0  0.87471  0.83480  0.82302  1.0000
  O   O1        1.0  0.37607  0.63814  0.43298  1.0000
  O   O2        1.0  0.62393  0.63814  0.06702  1.0000
  O   O3        1.0  0.87607  0.13814  0.43298  1.0000
  O   O4        1.0  0.12393  0.13814  0.06702  1.0000
  O   O5        1.0  0.62393  0.36186  0.56702  1.0000
  O   O6        1.0  0.37607  0.36186  0.93298  1.0000
  O   O7        1.0  0.12393  0.86186  0.56702  1.0000
  O   O8        1.0  0.87607  0.86186  0.93298  1.0000
  O   O9        1.0  0.32208  0.61900  0.50351  1.0000
  O   O10       1.0  0.67792  0.61900  0.99649  1.0000
  O   O11       1.0  0.82208  0.11900  0.50351  1.0000
  O   O12       1.0  0.17792  0.11900  0.99649  1.0000
  O   O13       1.0  0.67792  0.38100  0.49649  1.0000
  O   O14       1.0  0.32208  0.38100  0.00351  1.0000
  O   O15       1.0  0.17792  0.88100  0.49649  1.0000
  O   O16       1.0  0.82208  0.88100  0.00351  1.0000
  O   O17       1.0  0.33294  0.70890  0.20632  1.0000
  O   O18       1.0  0.66706  0.70890  0.29368  1.0000
  O   O19       1.0  0.83294  0.20890  0.20632  1.0000
  O   O20       1.0  0.16706  0.20890  0.29368  1.0000
  O   O21       1.0  0.66706  0.29110  0.79368  1.0000
  O   O22       1.0  0.33294  0.29110  0.70632  1.0000
  O   O23       1.0  0.16706  0.79110  0.79368  1.0000
  O   O24       1.0  0.83294  0.79110  0.70632  1.0000
  O   O25       1.0  0.25243  0.74940  0.13278  1.0000
  O   O26       1.0  0.74757  0.74940  0.36722  1.0000
  O   O27       1.0  0.75243  0.24940  0.13278  1.0000
  O   O28       1.0  0.24757  0.24940  0.36722  1.0000
  O   O29       1.0  0.74757  0.25060  0.86722  1.0000
  O   O30       1.0  0.25243  0.25060  0.63278  1.0000
  O   O31       1.0  0.24757  0.75060  0.86722  1.0000
  O   O32       1.0  0.75243  0.75060  0.63278  1.0000
  O   O33       1.0  0.14797  0.78300  0.32452  1.0000
  O   O34       1.0  0.85203  0.78300  0.17548  1.0000
  O   O35       1.0  0.64797  0.28300  0.32452  1.0000
  O   O36       1.0  0.35203  0.28300  0.17548  1.0000
  O   O37       1.0  0.85203  0.21700  0.67548  1.0000
  O   O38       1.0  0.14797  0.21700  0.82452  1.0000
  O   O39       1.0  0.35203  0.71700  0.67548  1.0000
  O   O40       1.0  0.64797  0.71700  0.82452  1.0000
  O   O41       1.0  0.40075  0.42994  0.29865  1.0000
  O   O42       1.0  0.59925  0.42994  0.20135  1.0000
  O   O43       1.0  0.90075  0.92994  0.29865  1.0000
  O   O44       1.0  0.09925  0.92994  0.20135  1.0000
  O   O45       1.0  0.59925  0.57006  0.70135  1.0000
  O   O46       1.0  0.40075  0.57006  0.79865  1.0000
  O   O47       1.0  0.09925  0.07006  0.70135  1.0000
  O   O48       1.0  0.90075  0.07006  0.79865  1.0000
  O   O49       1.0  0.46627  0.38850  0.39772  1.0000
  O   O50       1.0  0.53373  0.38850  0.10228  1.0000
  O   O51       1.0  0.96627  0.88850  0.39772  1.0000
  O   O52       1.0  0.03373  0.88850  0.10228  1.0000
  O   O53       1.0  0.53373  0.61150  0.60228  1.0000
  O   O54       1.0  0.46627  0.61150  0.89772  1.0000
  O   O55       1.0  0.03373  0.11150  0.60228  1.0000
  O   O56       1.0  0.96627  0.11150  0.89772  1.0000
  O   O57       1.0  0.40666  0.04388  0.35295  1.0000
  O   O58       1.0  0.59334  0.04388  0.14705  1.0000
  O   O59       1.0  0.90666  0.54388  0.35295  1.0000
  O   O60       1.0  0.09334  0.54388  0.14705  1.0000
  O   O61       1.0  0.59334  0.95612  0.64705  1.0000
  O   O62       1.0  0.40666  0.95612  0.85295  1.0000
  O   O63       1.0  0.09334  0.45612  0.64705  1.0000
  O   O64       1.0  0.90666  0.45612  0.85295  1.0000
  O   O65       1.0  0.43738  0.79179  0.31777  1.0000
  O   O66       1.0  0.56262  0.79179  0.18223  1.0000
  O   O67       1.0  0.93738  0.29179  0.31777  1.0000
  O   O68       1.0  0.06262  0.29179  0.18223  1.0000
  O   O69       1.0  0.56262  0.20821  0.68223  1.0000
  O   O70       1.0  0.43738  0.20821  0.81777  1.0000
  O   O71       1.0  0.06262  0.70821  0.68223  1.0000
  O   O72       1.0  0.93738  0.70821  0.81777  1.0000
  N   N1        1.0  0.29946  0.69950  0.31961  1.0000
  N   N2        1.0  0.70054  0.69950  0.18039  1.0000
  N   N3        1.0  0.79946  0.19950  0.31961  1.0000
  N   N4        1.0  0.20054  0.19950  0.18039  1.0000
  N   N5        1.0  0.70054  0.30050  0.68039  1.0000
  N   N6        1.0  0.29946  0.30050  0.81961  1.0000
  N   N7        1.0  0.20054  0.80050  0.68039  1.0000
  N   N8        1.0  0.79946  0.80050  0.81961  1.0000
  C   C1        1.0  0.28600  0.69060  0.38113  1.0000
  C   C2        1.0  0.71400  0.69060  0.11887  1.0000
  C   C3        1.0  0.78600  0.19060  0.38113  1.0000
  C   C4        1.0  0.21400  0.19060  0.11887  1.0000
  C   C5        1.0  0.71400  0.30940  0.61887  1.0000
  C   C6        1.0  0.28600  0.30940  0.88113  1.0000
  C   C7        1.0  0.21400  0.80940  0.61887  1.0000
  C   C8        1.0  0.78600  0.80940  0.88113  1.0000
  C   C9        1.0  0.23541  0.71760  0.38444  1.0000
  C   C10       1.0  0.76459  0.71760  0.11556  1.0000
  C   C11       1.0  0.73541  0.21760  0.38444  1.0000
  C   C12       1.0  0.26459  0.21760  0.11556  1.0000
  C   C13       1.0  0.76459  0.28240  0.61556  1.0000
  C   C14       1.0  0.23541  0.28240  0.88444  1.0000
  C   C15       1.0  0.26459  0.78240  0.61556  1.0000
  C   C16       1.0  0.73541  0.78240  0.88444  1.0000
  H   H1        1.0  0.22680  0.71190  0.42880  1.0000
  H   H2        1.0  0.77320  0.71190  0.07120  1.0000
  H   H3        1.0  0.72680  0.21190  0.42880  1.0000
  H   H4        1.0  0.27320  0.21190  0.07120  1.0000
  H   H5        1.0  0.77320  0.28810  0.57120  1.0000
  H   H6        1.0  0.22680  0.28810  0.92880  1.0000
  H   H7        1.0  0.27320  0.78810  0.57120  1.0000
  H   H8        1.0  0.72680  0.78810  0.92880  1.0000
  C   C17       1.0  0.19702  0.75350  0.32093  1.0000
  C   C18       1.0  0.80298  0.75350  0.17907  1.0000
  C   C19       1.0  0.69702  0.25350  0.32093  1.0000
  C   C20       1.0  0.30298  0.25350  0.17907  1.0000
  C   C21       1.0  0.80298  0.24650  0.67907  1.0000
  C   C22       1.0  0.19702  0.24650  0.82093  1.0000
  C   C23       1.0  0.30298  0.74650  0.67907  1.0000
  C   C24       1.0  0.69702  0.74650  0.82093  1.0000
  C   C25       1.0  0.21082  0.75510  0.25605  1.0000
  C   C26       1.0  0.78918  0.75510  0.24395  1.0000
  C   C27       1.0  0.71082  0.25510  0.25605  1.0000
  C   C28       1.0  0.28918  0.25510  0.24395  1.0000
  C   C29       1.0  0.78918  0.24490  0.74395  1.0000
  C   C30       1.0  0.21082  0.24490  0.75605  1.0000
  C   C31       1.0  0.28918  0.74490  0.74395  1.0000
  C   C32       1.0  0.71082  0.74490  0.75605  1.0000
  H   H9        1.0  0.18510  0.77370  0.21190  1.0000
  H   H10       1.0  0.81490  0.77370  0.28810  1.0000
  H   H11       1.0  0.68510  0.27370  0.21190  1.0000
  H   H12       1.0  0.31490  0.27370  0.28810  1.0000
  H   H13       1.0  0.81490  0.22630  0.78810  1.0000
  H   H14       1.0  0.18510  0.22630  0.71190  1.0000
  H   H15       1.0  0.31490  0.72630  0.78810  1.0000
  H   H16       1.0  0.68510  0.72630  0.71190  1.0000
  C   C33       1.0  0.26277  0.72900  0.25827  1.0000
  C   C34       1.0  0.73723  0.72900  0.24173  1.0000
  C   C35       1.0  0.76277  0.22900  0.25827  1.0000
  C   C36       1.0  0.23723  0.22900  0.24173  1.0000
  C   C37       1.0  0.73723  0.27100  0.74173  1.0000
  C   C38       1.0  0.26277  0.27100  0.75827  1.0000
  C   C39       1.0  0.23723  0.77100  0.74173  1.0000
  C   C40       1.0  0.76277  0.77100  0.75827  1.0000
  C   C41       1.0  0.33114  0.64700  0.44511  1.0000
  C   C42       1.0  0.66886  0.64700  0.05489  1.0000
  C   C43       1.0  0.83114  0.14700  0.44511  1.0000
  C   C44       1.0  0.16886  0.14700  0.05489  1.0000
  C   C45       1.0  0.66886  0.35300  0.55489  1.0000
  C   C46       1.0  0.33114  0.35300  0.94511  1.0000
  C   C47       1.0  0.16886  0.85300  0.55489  1.0000
  C   C48       1.0  0.83114  0.85300  0.94511  1.0000
  C   C49       1.0  0.28299  0.73040  0.19219  1.0000
  C   C50       1.0  0.71701  0.73040  0.30781  1.0000
  C   C51       1.0  0.78299  0.23040  0.19219  1.0000
  C   C52       1.0  0.21701  0.23040  0.30781  1.0000
  C   C53       1.0  0.71701  0.26960  0.80781  1.0000
  C   C54       1.0  0.28299  0.26960  0.69219  1.0000
  C   C55       1.0  0.21701  0.76960  0.80781  1.0000
  C   C56       1.0  0.78299  0.76960  0.69219  1.0000
  C   C57       1.0  0.44446  0.36200  0.33389  1.0000
  C   C58       1.0  0.55554  0.36200  0.16611  1.0000
  C   C59       1.0  0.94446  0.86200  0.33389  1.0000
  C   C60       1.0  0.05554  0.86200  0.16611  1.0000
  C   C61       1.0  0.55554  0.63800  0.66611  1.0000
  C   C62       1.0  0.44446  0.63800  0.83389  1.0000
  C   C63       1.0  0.05554  0.13800  0.66611  1.0000
  C   C64       1.0  0.94446  0.13800  0.83389  1.0000
  C   C65       1.0  0.50000  0.34480  0.25000  1.0000
  C   C66       1.0  0.00000  0.84480  0.25000  1.0000
  C   C67       1.0  0.50000  0.65520  0.75000  1.0000
  C   C68       1.0  0.00000  0.15520  0.75000  1.0000
  H   H17       1.0  0.50000  0.47220  0.25000  1.0000
  H   H18       1.0  0.00000  0.97220  0.25000  1.0000
  H   H19       1.0  0.50000  0.52780  0.75000  1.0000
  H   H20       1.0  0.00000  0.02780  0.75000  1.0000
  C   C69       1.0  0.47211  0.25230  0.28996  1.0000
  C   C70       1.0  0.52789  0.25230  0.21004  1.0000
  C   C71       1.0  0.97211  0.75230  0.28996  1.0000
  C   C72       1.0  0.02789  0.75230  0.21004  1.0000
  C   C73       1.0  0.52789  0.74770  0.71004  1.0000
  C   C74       1.0  0.47211  0.74770  0.78996  1.0000
  C   C75       1.0  0.02789  0.24770  0.71004  1.0000
  C   C76       1.0  0.97211  0.24770  0.78996  1.0000
  C   C77       1.0  0.47074  0.06560  0.28828  1.0000
  C   C78       1.0  0.52926  0.06560  0.21172  1.0000
  C   C79       1.0  0.97074  0.56560  0.28828  1.0000
  C   C80       1.0  0.02926  0.56560  0.21172  1.0000
  C   C81       1.0  0.52926  0.93440  0.71172  1.0000
  C   C82       1.0  0.47074  0.93440  0.78828  1.0000
  C   C83       1.0  0.02926  0.43440  0.71172  1.0000
  C   C84       1.0  0.97074  0.43440  0.78828  1.0000
  C   C85       1.0  0.50000  0.97460  0.25000  1.0000
  C   C86       1.0  0.00000  0.47460  0.25000  1.0000
  C   C87       1.0  0.50000  0.02540  0.75000  1.0000
  C   C88       1.0  0.00000  0.52540  0.75000  1.0000
  H   H21       1.0  0.50000  0.84720  0.25000  1.0000
  H   H22       1.0  0.00000  0.34720  0.25000  1.0000
  H   H23       1.0  0.50000  0.15280  0.75000  1.0000
  H   H24       1.0  0.00000  0.65280  0.75000  1.0000
  C   C89       1.0  0.43562  0.96240  0.32349  1.0000
  C   C90       1.0  0.56438  0.96240  0.17651  1.0000
  C   C91       1.0  0.93562  0.46240  0.32349  1.0000
  C   C92       1.0  0.06438  0.46240  0.17651  1.0000
  C   C93       1.0  0.56438  0.03760  0.67651  1.0000
  C   C94       1.0  0.43562  0.03760  0.82349  1.0000
  C   C95       1.0  0.06438  0.53760  0.67651  1.0000
  C   C96       1.0  0.93562  0.53760  0.82349  1.0000
  H   H25       1.0  0.12980  0.83200  0.28410  1.0000
  H   H26       1.0  0.87020  0.83200  0.21590  1.0000
  H   H27       1.0  0.62980  0.33200  0.28410  1.0000
  H   H28       1.0  0.37020  0.33200  0.21590  1.0000
  H   H29       1.0  0.87020  0.16800  0.71590  1.0000
  H   H30       1.0  0.12980  0.16800  0.78410  1.0000
  H   H31       1.0  0.37020  0.66800  0.71590  1.0000
  H   H32       1.0  0.62980  0.66800  0.78410  1.0000
