data_image0
_chemical_formula_structural       Cu16I16Mn8Mo48O192N16C8H16C16H16C8H16C8H16C8H16C16H16C16H8C16H8C8H8C8H8C8H8C8H8C8H8C8H8
_chemical_formula_sum              "Cu16 I16 Mn8 Mo48 O192 N16 C144 H160"
_cell_length_a       37.6898
_cell_length_b       37.6898
_cell_length_c       14.2576
_cell_angle_alpha    90
_cell_angle_beta     90
_cell_angle_gamma    90

_space_group_name_H-M_alt    "P 1"
_space_group_IT_number       1

loop_
  _space_group_symop_operation_xyz
  'x, y, z'

loop_
  _atom_site_type_symbol
  _atom_site_label
  _atom_site_symmetry_multiplicity
  _atom_site_fract_x
  _atom_site_fract_y
  _atom_site_fract_z
  _atom_site_occupancy
  Cu  Cu1       1.0  0.74181  0.71656  0.07992  1.0000
  Cu  Cu2       1.0  0.78344  0.24181  0.82992  1.0000
  Cu  Cu3       1.0  0.25819  0.28344  0.57992  1.0000
  Cu  Cu4       1.0  0.21656  0.75819  0.32992  1.0000
  Cu  Cu5       1.0  0.24181  0.78344  0.17008  1.0000
  Cu  Cu6       1.0  0.75819  0.21656  0.67008  1.0000
  Cu  Cu7       1.0  0.71656  0.74181  0.92008  1.0000
  Cu  Cu8       1.0  0.28344  0.25819  0.42008  1.0000
  Cu  Cu9       1.0  0.74108  0.78402  0.04424  1.0000
  Cu  Cu10      1.0  0.71598  0.24108  0.79424  1.0000
  Cu  Cu11      1.0  0.25892  0.21598  0.54424  1.0000
  Cu  Cu12      1.0  0.28402  0.75892  0.29424  1.0000
  Cu  Cu13      1.0  0.24108  0.71598  0.20576  1.0000
  Cu  Cu14      1.0  0.75892  0.28402  0.70576  1.0000
  Cu  Cu15      1.0  0.78402  0.74108  0.95576  1.0000
  Cu  Cu16      1.0  0.21598  0.25892  0.45576  1.0000
  I   I1        1.0  0.68093  0.75016  0.09254  1.0000
  I   I2        1.0  0.74984  0.18093  0.84254  1.0000
  I   I3        1.0  0.31907  0.24984  0.59254  1.0000
  I   I4        1.0  0.25016  0.81907  0.34254  1.0000
  I   I5        1.0  0.18093  0.74984  0.15746  1.0000
  I   I6        1.0  0.81907  0.25016  0.65746  1.0000
  I   I7        1.0  0.75016  0.68093  0.90746  1.0000
  I   I8        1.0  0.24984  0.31907  0.40746  1.0000
  I   I9        1.0  0.79855  0.75338  0.13481  1.0000
  I   I10       1.0  0.74662  0.29855  0.88481  1.0000
  I   I11       1.0  0.20145  0.24662  0.63481  1.0000
  I   I12       1.0  0.25338  0.70145  0.38481  1.0000
  I   I13       1.0  0.29855  0.74662  0.11519  1.0000
  I   I14       1.0  0.70145  0.25338  0.61519  1.0000
  I   I15       1.0  0.75338  0.79855  0.86519  1.0000
  I   I16       1.0  0.24662  0.20145  0.36519  1.0000
  Mn  Mn1       1.0  0.75107  0.00104  0.35318  1.0000
  Mn  Mn2       1.0  0.49896  0.25107  0.10318  1.0000
  Mn  Mn3       1.0  0.24893  0.99896  0.85318  1.0000
  Mn  Mn4       1.0  0.50104  0.74893  0.60318  1.0000
  Mn  Mn5       1.0  0.25107  0.49896  0.89682  1.0000
  Mn  Mn6       1.0  0.74893  0.50104  0.39682  1.0000
  Mn  Mn7       1.0  0.00104  0.75107  0.64682  1.0000
  Mn  Mn8       1.0  0.99896  0.24893  0.14682  1.0000
  Mo  Mo1       1.0  0.70374  0.03959  0.18231  1.0000
  Mo  Mo2       1.0  0.46041  0.20374  0.93231  1.0000
  Mo  Mo3       1.0  0.29626  0.96041  0.68231  1.0000
  Mo  Mo4       1.0  0.53959  0.79626  0.43231  1.0000
  Mo  Mo5       1.0  0.20374  0.46041  0.06769  1.0000
  Mo  Mo6       1.0  0.79626  0.53959  0.56769  1.0000
  Mo  Mo7       1.0  0.03959  0.70374  0.81769  1.0000
  Mo  Mo8       1.0  0.96041  0.29626  0.31769  1.0000
  Mo  Mo9       1.0  0.66257  0.00622  0.37134  1.0000
  Mo  Mo10      1.0  0.49378  0.16257  0.12134  1.0000
  Mo  Mo11      1.0  0.33743  0.99378  0.87134  1.0000
  Mo  Mo12      1.0  0.50622  0.83743  0.62134  1.0000
  Mo  Mo13      1.0  0.16257  0.49378  0.87866  1.0000
  Mo  Mo14      1.0  0.83743  0.50622  0.37866  1.0000
  Mo  Mo15      1.0  0.00622  0.66257  0.62866  1.0000
  Mo  Mo16      1.0  0.99378  0.33743  0.12866  1.0000
  Mo  Mo17      1.0  0.70948  0.96718  0.54164  1.0000
  Mo  Mo18      1.0  0.53282  0.20948  0.29164  1.0000
  Mo  Mo19      1.0  0.29052  0.03282  0.04164  1.0000
  Mo  Mo20      1.0  0.46718  0.79052  0.79164  1.0000
  Mo  Mo21      1.0  0.20948  0.53282  0.70836  1.0000
  Mo  Mo22      1.0  0.79052  0.46718  0.20836  1.0000
  Mo  Mo23      1.0  0.96718  0.70948  0.45836  1.0000
  Mo  Mo24      1.0  0.03282  0.29052  0.95836  1.0000
  Mo  Mo25      1.0  0.79225  0.03386  0.16307  1.0000
  Mo  Mo26      1.0  0.46614  0.29225  0.91307  1.0000
  Mo  Mo27      1.0  0.20775  0.96614  0.66307  1.0000
  Mo  Mo28      1.0  0.53386  0.70775  0.41307  1.0000
  Mo  Mo29      1.0  0.29225  0.46614  0.08693  1.0000
  Mo  Mo30      1.0  0.70775  0.53386  0.58693  1.0000
  Mo  Mo31      1.0  0.03386  0.79225  0.83693  1.0000
  Mo  Mo32      1.0  0.96614  0.20775  0.33693  1.0000
  Mo  Mo33      1.0  0.83961  0.99571  0.33460  1.0000
  Mo  Mo34      1.0  0.50429  0.33961  0.08460  1.0000
  Mo  Mo35      1.0  0.16039  0.00429  0.83460  1.0000
  Mo  Mo36      1.0  0.49571  0.66039  0.58460  1.0000
  Mo  Mo37      1.0  0.33961  0.50429  0.91540  1.0000
  Mo  Mo38      1.0  0.66039  0.49571  0.41540  1.0000
  Mo  Mo39      1.0  0.99571  0.83961  0.66540  1.0000
  Mo  Mo40      1.0  0.00429  0.16039  0.16540  1.0000
  Mo  Mo41      1.0  0.79781  0.96294  0.52487  1.0000
  Mo  Mo42      1.0  0.53706  0.29781  0.27487  1.0000
  Mo  Mo43      1.0  0.20219  0.03706  0.02487  1.0000
  Mo  Mo44      1.0  0.46294  0.70219  0.77487  1.0000
  Mo  Mo45      1.0  0.29781  0.53706  0.72513  1.0000
  Mo  Mo46      1.0  0.70219  0.46294  0.22513  1.0000
  Mo  Mo47      1.0  0.96294  0.79781  0.47513  1.0000
  Mo  Mo48      1.0  0.03706  0.20219  0.97513  1.0000
  O   O1        1.0  0.71086  0.98806  0.27290  1.0000
  O   O2        1.0  0.51194  0.21086  0.02290  1.0000
  O   O3        1.0  0.28914  0.01194  0.77290  1.0000
  O   O4        1.0  0.48806  0.78914  0.52290  1.0000
  O   O5        1.0  0.21086  0.51194  0.97710  1.0000
  O   O6        1.0  0.78914  0.48806  0.47710  1.0000
  O   O7        1.0  0.98806  0.71086  0.72710  1.0000
  O   O8        1.0  0.01194  0.28914  0.22710  1.0000
  O   O9        1.0  0.74987  0.95640  0.41920  1.0000
  O   O10       1.0  0.54360  0.24987  0.16920  1.0000
  O   O11       1.0  0.25013  0.04360  0.91920  1.0000
  O   O12       1.0  0.45640  0.75013  0.66920  1.0000
  O   O13       1.0  0.24987  0.54360  0.83080  1.0000
  O   O14       1.0  0.75013  0.45640  0.33080  1.0000
  O   O15       1.0  0.95640  0.74987  0.58080  1.0000
  O   O16       1.0  0.04360  0.25013  0.08080  1.0000
  O   O17       1.0  0.75137  0.04629  0.28740  1.0000
  O   O18       1.0  0.45371  0.25137  0.03740  1.0000
  O   O19       1.0  0.24863  0.95371  0.78740  1.0000
  O   O20       1.0  0.54629  0.74863  0.53740  1.0000
  O   O21       1.0  0.25137  0.45371  0.96260  1.0000
  O   O22       1.0  0.74863  0.54629  0.46260  1.0000
  O   O23       1.0  0.04629  0.75137  0.71260  1.0000
  O   O24       1.0  0.95371  0.24863  0.21260  1.0000
  O   O25       1.0  0.71531  0.01839  0.45080  1.0000
  O   O26       1.0  0.48161  0.21531  0.20080  1.0000
  O   O27       1.0  0.28469  0.98161  0.95080  1.0000
  O   O28       1.0  0.51839  0.78469  0.70080  1.0000
  O   O29       1.0  0.21531  0.48161  0.79920  1.0000
  O   O30       1.0  0.78469  0.51839  0.29920  1.0000
  O   O31       1.0  0.01839  0.71531  0.54920  1.0000
  O   O32       1.0  0.98161  0.28469  0.04920  1.0000
  O   O33       1.0  0.79210  0.01426  0.43310  1.0000
  O   O34       1.0  0.48574  0.29210  0.18310  1.0000
  O   O35       1.0  0.20790  0.98574  0.93310  1.0000
  O   O36       1.0  0.51426  0.70790  0.68310  1.0000
  O   O37       1.0  0.29210  0.48574  0.81690  1.0000
  O   O38       1.0  0.70790  0.51426  0.31690  1.0000
  O   O39       1.0  0.01426  0.79210  0.56690  1.0000
  O   O40       1.0  0.98574  0.20790  0.06690  1.0000
  O   O41       1.0  0.67716  0.04643  0.29870  1.0000
  O   O42       1.0  0.45357  0.17716  0.04870  1.0000
  O   O43       1.0  0.32284  0.95357  0.79870  1.0000
  O   O44       1.0  0.54643  0.82284  0.54870  1.0000
  O   O45       1.0  0.17716  0.45357  0.95130  1.0000
  O   O46       1.0  0.82284  0.54643  0.45130  1.0000
  O   O47       1.0  0.04643  0.67716  0.70130  1.0000
  O   O48       1.0  0.95357  0.32284  0.20130  1.0000
  O   O49       1.0  0.74474  0.01941  0.12570  1.0000
  O   O50       1.0  0.48059  0.24474  0.87570  1.0000
  O   O51       1.0  0.25526  0.98059  0.62570  1.0000
  O   O52       1.0  0.51941  0.75526  0.37570  1.0000
  O   O53       1.0  0.24474  0.48059  0.12430  1.0000
  O   O54       1.0  0.75526  0.51941  0.62430  1.0000
  O   O55       1.0  0.01941  0.74474  0.87430  1.0000
  O   O56       1.0  0.98059  0.25526  0.37430  1.0000
  O   O57       1.0  0.67719  0.96473  0.43750  1.0000
  O   O58       1.0  0.53527  0.17719  0.18750  1.0000
  O   O59       1.0  0.32281  0.03527  0.93750  1.0000
  O   O60       1.0  0.46473  0.82281  0.68750  1.0000
  O   O61       1.0  0.17719  0.53527  0.81250  1.0000
  O   O62       1.0  0.82281  0.46473  0.31250  1.0000
  O   O63       1.0  0.96473  0.67719  0.56250  1.0000
  O   O64       1.0  0.03527  0.32281  0.06250  1.0000
  O   O65       1.0  0.82378  0.95685  0.40800  1.0000
  O   O66       1.0  0.54315  0.32378  0.15800  1.0000
  O   O67       1.0  0.17622  0.04315  0.90800  1.0000
  O   O68       1.0  0.45685  0.67622  0.65800  1.0000
  O   O69       1.0  0.32378  0.54315  0.84200  1.0000
  O   O70       1.0  0.67622  0.45685  0.34200  1.0000
  O   O71       1.0  0.95685  0.82378  0.59200  1.0000
  O   O72       1.0  0.04315  0.17622  0.09200  1.0000
  O   O73       1.0  0.67157  0.02160  0.11160  1.0000
  O   O74       1.0  0.47840  0.17157  0.86160  1.0000
  O   O75       1.0  0.32843  0.97840  0.61160  1.0000
  O   O76       1.0  0.52160  0.82843  0.36160  1.0000
  O   O77       1.0  0.17157  0.47840  0.13840  1.0000
  O   O78       1.0  0.82843  0.52160  0.63840  1.0000
  O   O79       1.0  0.02160  0.67157  0.88840  1.0000
  O   O80       1.0  0.97840  0.32843  0.38840  1.0000
  O   O81       1.0  0.75570  0.98173  0.57970  1.0000
  O   O82       1.0  0.51827  0.25570  0.32970  1.0000
  O   O83       1.0  0.24430  0.01827  0.07970  1.0000
  O   O84       1.0  0.48173  0.74430  0.82970  1.0000
  O   O85       1.0  0.25570  0.51827  0.67030  1.0000
  O   O86       1.0  0.74430  0.48173  0.17030  1.0000
  O   O87       1.0  0.98173  0.75570  0.42030  1.0000
  O   O88       1.0  0.01827  0.24430  0.92030  1.0000
  O   O89       1.0  0.86480  0.97340  0.25450  1.0000
  O   O90       1.0  0.52660  0.36480  0.00450  1.0000
  O   O91       1.0  0.13520  0.02660  0.75450  1.0000
  O   O92       1.0  0.47340  0.63520  0.50450  1.0000
  O   O93       1.0  0.36480  0.52660  0.99550  1.0000
  O   O94       1.0  0.63520  0.47340  0.49550  1.0000
  O   O95       1.0  0.97340  0.86480  0.74550  1.0000
  O   O96       1.0  0.02660  0.13520  0.24550  1.0000
  O   O97       1.0  0.82820  0.98260  0.59590  1.0000
  O   O98       1.0  0.51740  0.32820  0.34590  1.0000
  O   O99       1.0  0.17180  0.01740  0.09590  1.0000
  O   O100      1.0  0.48260  0.67180  0.84590  1.0000
  O   O101      1.0  0.32820  0.51740  0.65410  1.0000
  O   O102      1.0  0.67180  0.48260  0.15410  1.0000
  O   O103      1.0  0.98260  0.82820  0.40410  1.0000
  O   O104      1.0  0.01740  0.17180  0.90410  1.0000
  O   O105      1.0  0.78732  0.98368  0.25550  1.0000
  O   O106      1.0  0.51632  0.28732  0.00550  1.0000
  O   O107      1.0  0.21268  0.01632  0.75550  1.0000
  O   O108      1.0  0.48368  0.71268  0.50550  1.0000
  O   O109      1.0  0.28732  0.51632  0.99450  1.0000
  O   O110      1.0  0.71268  0.48368  0.49450  1.0000
  O   O111      1.0  0.98368  0.78732  0.74450  1.0000
  O   O112      1.0  0.01632  0.21268  0.24450  1.0000
  O   O113      1.0  0.70750  0.08287  0.14960  1.0000
  O   O114      1.0  0.41713  0.20750  0.89960  1.0000
  O   O115      1.0  0.29250  0.91713  0.64960  1.0000
  O   O116      1.0  0.58287  0.79250  0.39960  1.0000
  O   O117      1.0  0.20750  0.41713  0.10040  1.0000
  O   O118      1.0  0.79250  0.58287  0.60040  1.0000
  O   O119      1.0  0.08287  0.70750  0.85040  1.0000
  O   O120      1.0  0.91713  0.29250  0.35040  1.0000
  O   O121      1.0  0.82499  0.03723  0.26740  1.0000
  O   O122      1.0  0.46277  0.32499  0.01740  1.0000
  O   O123      1.0  0.17501  0.96277  0.76740  1.0000
  O   O124      1.0  0.53723  0.67501  0.51740  1.0000
  O   O125      1.0  0.32499  0.46277  0.98260  1.0000
  O   O126      1.0  0.67501  0.53723  0.48260  1.0000
  O   O127      1.0  0.03723  0.82499  0.73260  1.0000
  O   O128      1.0  0.96277  0.17501  0.23260  1.0000
  O   O129      1.0  0.68420  0.98680  0.62450  1.0000
  O   O130      1.0  0.51320  0.18420  0.37450  1.0000
  O   O131      1.0  0.31580  0.01320  0.12450  1.0000
  O   O132      1.0  0.48680  0.81580  0.87450  1.0000
  O   O133      1.0  0.18420  0.51320  0.62550  1.0000
  O   O134      1.0  0.81580  0.48680  0.12550  1.0000
  O   O135      1.0  0.98680  0.68420  0.37550  1.0000
  O   O136      1.0  0.01320  0.31580  0.87550  1.0000
  O   O137      1.0  0.63760  0.02771  0.45240  1.0000
  O   O138      1.0  0.47229  0.13760  0.20240  1.0000
  O   O139      1.0  0.36240  0.97229  0.95240  1.0000
  O   O140      1.0  0.52771  0.86240  0.70240  1.0000
  O   O141      1.0  0.13760  0.47229  0.79760  1.0000
  O   O142      1.0  0.86240  0.52771  0.29760  1.0000
  O   O143      1.0  0.02771  0.63760  0.54760  1.0000
  O   O144      1.0  0.97229  0.36240  0.04760  1.0000
  O   O145      1.0  0.86910  0.01520  0.40780  1.0000
  O   O146      1.0  0.48480  0.36910  0.15780  1.0000
  O   O147      1.0  0.13090  0.98480  0.90780  1.0000
  O   O148      1.0  0.51520  0.63090  0.65780  1.0000
  O   O149      1.0  0.36910  0.48480  0.84220  1.0000
  O   O150      1.0  0.63090  0.51520  0.34220  1.0000
  O   O151      1.0  0.01520  0.86910  0.59220  1.0000
  O   O152      1.0  0.98480  0.13090  0.09220  1.0000
  O   O153      1.0  0.70960  0.92420  0.57140  1.0000
  O   O154      1.0  0.57580  0.20960  0.32140  1.0000
  O   O155      1.0  0.29040  0.07580  0.07140  1.0000
  O   O156      1.0  0.42420  0.79040  0.82140  1.0000
  O   O157      1.0  0.20960  0.57580  0.67860  1.0000
  O   O158      1.0  0.79040  0.42420  0.17860  1.0000
  O   O159      1.0  0.92420  0.70960  0.42860  1.0000
  O   O160      1.0  0.07580  0.29040  0.92860  1.0000
  O   O161      1.0  0.79590  0.92018  0.55900  1.0000
  O   O162      1.0  0.57982  0.29590  0.30900  1.0000
  O   O163      1.0  0.20410  0.07982  0.05900  1.0000
  O   O164      1.0  0.42018  0.70410  0.80900  1.0000
  O   O165      1.0  0.29590  0.57982  0.69100  1.0000
  O   O166      1.0  0.70410  0.42018  0.19100  1.0000
  O   O167      1.0  0.92018  0.79590  0.44100  1.0000
  O   O168      1.0  0.07982  0.20410  0.94100  1.0000
  O   O169      1.0  0.79200  0.07785  0.13310  1.0000
  O   O170      1.0  0.42215  0.29200  0.88310  1.0000
  O   O171      1.0  0.20800  0.92215  0.63310  1.0000
  O   O172      1.0  0.57785  0.70800  0.38310  1.0000
  O   O173      1.0  0.29200  0.42215  0.11690  1.0000
  O   O174      1.0  0.70800  0.57785  0.61690  1.0000
  O   O175      1.0  0.07785  0.79200  0.86690  1.0000
  O   O176      1.0  0.92215  0.20800  0.36690  1.0000
  O   O177      1.0  0.63246  0.98638  0.29910  1.0000
  O   O178      1.0  0.51362  0.13246  0.04910  1.0000
  O   O179      1.0  0.36754  0.01362  0.79910  1.0000
  O   O180      1.0  0.48638  0.86754  0.54910  1.0000
  O   O181      1.0  0.13246  0.51362  0.95090  1.0000
  O   O182      1.0  0.86754  0.48638  0.45090  1.0000
  O   O183      1.0  0.98638  0.63246  0.70090  1.0000
  O   O184      1.0  0.01362  0.36754  0.20090  1.0000
  O   O185      1.0  0.81570  0.01210  0.07840  1.0000
  O   O186      1.0  0.48790  0.31570  0.82840  1.0000
  O   O187      1.0  0.18430  0.98790  0.57840  1.0000
  O   O188      1.0  0.51210  0.68430  0.32840  1.0000
  O   O189      1.0  0.31570  0.48790  0.17160  1.0000
  O   O190      1.0  0.68430  0.51210  0.67160  1.0000
  O   O191      1.0  0.01210  0.81570  0.92160  1.0000
  O   O192      1.0  0.98790  0.18430  0.42160  1.0000
  N   N1        1.0  0.73710  0.83090  0.10860  1.0000
  N   N2        1.0  0.66910  0.23710  0.85860  1.0000
  N   N3        1.0  0.26290  0.16910  0.60860  1.0000
  N   N4        1.0  0.33090  0.76290  0.35860  1.0000
  N   N5        1.0  0.23710  0.66910  0.14140  1.0000
  N   N6        1.0  0.76290  0.33090  0.64140  1.0000
  N   N7        1.0  0.83090  0.73710  0.89140  1.0000
  N   N8        1.0  0.16910  0.26290  0.39140  1.0000
  N   N9        1.0  0.75960  0.17240  0.59020  1.0000
  N   N10       1.0  0.32760  0.25960  0.34020  1.0000
  N   N11       1.0  0.24040  0.82760  0.09020  1.0000
  N   N12       1.0  0.67240  0.74040  0.84020  1.0000
  N   N13       1.0  0.25960  0.32760  0.65980  1.0000
  N   N14       1.0  0.74040  0.67240  0.15980  1.0000
  N   N15       1.0  0.17240  0.75960  0.40980  1.0000
  N   N16       1.0  0.82760  0.24040  0.90980  1.0000
  C   C1        1.0  0.75590  0.07739  0.34360  1.0000
  C   C2        1.0  0.42261  0.25590  0.09360  1.0000
  C   C3        1.0  0.24410  0.92261  0.84360  1.0000
  C   C4        1.0  0.57739  0.74410  0.59360  1.0000
  C   C5        1.0  0.25590  0.42261  0.90640  1.0000
  C   C6        1.0  0.74410  0.57739  0.40640  1.0000
  C   C7        1.0  0.07739  0.75590  0.65640  1.0000
  C   C8        1.0  0.92261  0.24410  0.15640  1.0000
  H   H1        1.0  0.73620  0.09400  0.32970  1.0000
  H   H2        1.0  0.40600  0.23620  0.07970  1.0000
  H   H3        1.0  0.26380  0.90600  0.82970  1.0000
  H   H4        1.0  0.59400  0.76380  0.57970  1.0000
  H   H5        1.0  0.23620  0.40600  0.92030  1.0000
  H   H6        1.0  0.76380  0.59400  0.42030  1.0000
  H   H7        1.0  0.09400  0.73620  0.67030  1.0000
  H   H8        1.0  0.90600  0.26380  0.17030  1.0000
  H   H9        1.0  0.77830  0.08910  0.32520  1.0000
  H   H10       1.0  0.41090  0.27830  0.07520  1.0000
  H   H11       1.0  0.22170  0.91090  0.82520  1.0000
  H   H12       1.0  0.58910  0.72170  0.57520  1.0000
  H   H13       1.0  0.27830  0.41090  0.92480  1.0000
  H   H14       1.0  0.72170  0.58910  0.42480  1.0000
  H   H15       1.0  0.08910  0.77830  0.67480  1.0000
  H   H16       1.0  0.91090  0.22170  0.17480  1.0000
  C   C9        1.0  0.75670  0.07050  0.45130  1.0000
  C   C10       1.0  0.42950  0.25670  0.20130  1.0000
  C   C11       1.0  0.24330  0.92950  0.95130  1.0000
  C   C12       1.0  0.57050  0.74330  0.70130  1.0000
  C   C13       1.0  0.25670  0.42950  0.79870  1.0000
  C   C14       1.0  0.74330  0.57050  0.29870  1.0000
  C   C15       1.0  0.07050  0.75670  0.54870  1.0000
  C   C16       1.0  0.92950  0.24330  0.04870  1.0000
  C   C17       1.0  0.71140  0.95330  0.22880  1.0000
  C   C18       1.0  0.54670  0.21140  0.97880  1.0000
  C   C19       1.0  0.28860  0.04670  0.72880  1.0000
  C   C20       1.0  0.45330  0.78860  0.47880  1.0000
  C   C21       1.0  0.21140  0.54670  0.02120  1.0000
  C   C22       1.0  0.78860  0.45330  0.52120  1.0000
  C   C23       1.0  0.95330  0.71140  0.77120  1.0000
  C   C24       1.0  0.04670  0.28860  0.27120  1.0000
  H   H17       1.0  0.71050  0.95620  0.15980  1.0000
  H   H18       1.0  0.54380  0.21050  0.90980  1.0000
  H   H19       1.0  0.28950  0.04380  0.65980  1.0000
  H   H20       1.0  0.45620  0.78950  0.40980  1.0000
  H   H21       1.0  0.21050  0.54380  0.09020  1.0000
  H   H22       1.0  0.78950  0.45620  0.59020  1.0000
  H   H23       1.0  0.95620  0.71050  0.84020  1.0000
  H   H24       1.0  0.04380  0.28950  0.34020  1.0000
  H   H25       1.0  0.69010  0.93980  0.24830  1.0000
  H   H26       1.0  0.56020  0.19010  0.99830  1.0000
  H   H27       1.0  0.30990  0.06020  0.74830  1.0000
  H   H28       1.0  0.43980  0.80990  0.49830  1.0000
  H   H29       1.0  0.19010  0.56020  0.00170  1.0000
  H   H30       1.0  0.80990  0.43980  0.50170  1.0000
  H   H31       1.0  0.93980  0.69010  0.75170  1.0000
  H   H32       1.0  0.06020  0.30990  0.25170  1.0000
  C   C25       1.0  0.77920  0.94880  0.21820  1.0000
  C   C26       1.0  0.55120  0.27920  0.96820  1.0000
  C   C27       1.0  0.22080  0.05120  0.71820  1.0000
  C   C28       1.0  0.44880  0.72080  0.46820  1.0000
  C   C29       1.0  0.27920  0.55120  0.03180  1.0000
  C   C30       1.0  0.72080  0.44880  0.53180  1.0000
  C   C31       1.0  0.94880  0.77920  0.78180  1.0000
  C   C32       1.0  0.05120  0.22080  0.28180  1.0000
  H   H33       1.0  0.79950  0.93280  0.23180  1.0000
  H   H34       1.0  0.56720  0.29950  0.98180  1.0000
  H   H35       1.0  0.20050  0.06720  0.73180  1.0000
  H   H36       1.0  0.43280  0.70050  0.48180  1.0000
  H   H37       1.0  0.29950  0.56720  0.01820  1.0000
  H   H38       1.0  0.70050  0.43280  0.51820  1.0000
  H   H39       1.0  0.93280  0.79950  0.76820  1.0000
  H   H40       1.0  0.06720  0.20050  0.26820  1.0000
  H   H41       1.0  0.77710  0.95070  0.14920  1.0000
  H   H42       1.0  0.54930  0.27710  0.89920  1.0000
  H   H43       1.0  0.22290  0.04930  0.64920  1.0000
  H   H44       1.0  0.45070  0.72290  0.39920  1.0000
  H   H45       1.0  0.27710  0.54930  0.10080  1.0000
  H   H46       1.0  0.72290  0.45070  0.60080  1.0000
  H   H47       1.0  0.95070  0.77710  0.85080  1.0000
  H   H48       1.0  0.04930  0.22290  0.35080  1.0000
  C   C33       1.0  0.78880  0.04840  0.47710  1.0000
  C   C34       1.0  0.45160  0.28880  0.22710  1.0000
  C   C35       1.0  0.21120  0.95160  0.97710  1.0000
  C   C36       1.0  0.54840  0.71120  0.72710  1.0000
  C   C37       1.0  0.28880  0.45160  0.77290  1.0000
  C   C38       1.0  0.71120  0.54840  0.27290  1.0000
  C   C39       1.0  0.04840  0.78880  0.52290  1.0000
  C   C40       1.0  0.95160  0.21120  0.02290  1.0000
  H   H49       1.0  0.81030  0.06240  0.46200  1.0000
  H   H50       1.0  0.43760  0.31030  0.21200  1.0000
  H   H51       1.0  0.18970  0.93760  0.96200  1.0000
  H   H52       1.0  0.56240  0.68970  0.71200  1.0000
  H   H53       1.0  0.31030  0.43760  0.78800  1.0000
  H   H54       1.0  0.68970  0.56240  0.28800  1.0000
  H   H55       1.0  0.06240  0.81030  0.53800  1.0000
  H   H56       1.0  0.93760  0.18970  0.03800  1.0000
  H   H57       1.0  0.78850  0.04480  0.54590  1.0000
  H   H58       1.0  0.45520  0.28850  0.29590  1.0000
  H   H59       1.0  0.21150  0.95520  0.04590  1.0000
  H   H60       1.0  0.54480  0.71150  0.79590  1.0000
  H   H61       1.0  0.28850  0.45520  0.70410  1.0000
  H   H62       1.0  0.71150  0.54480  0.20410  1.0000
  H   H63       1.0  0.04480  0.78850  0.45410  1.0000
  H   H64       1.0  0.95520  0.21150  0.95410  1.0000
  C   C41       1.0  0.72310  0.05340  0.48880  1.0000
  C   C42       1.0  0.44660  0.22310  0.23880  1.0000
  C   C43       1.0  0.27690  0.94660  0.98880  1.0000
  C   C44       1.0  0.55340  0.77690  0.73880  1.0000
  C   C45       1.0  0.22310  0.44660  0.76120  1.0000
  C   C46       1.0  0.77690  0.55340  0.26120  1.0000
  C   C47       1.0  0.05340  0.72310  0.51120  1.0000
  C   C48       1.0  0.94660  0.27690  0.01120  1.0000
  H   H65       1.0  0.72520  0.05150  0.55780  1.0000
  H   H66       1.0  0.44850  0.22520  0.30780  1.0000
  H   H67       1.0  0.27480  0.94850  0.05780  1.0000
  H   H68       1.0  0.55150  0.77480  0.80780  1.0000
  H   H69       1.0  0.22520  0.44850  0.69220  1.0000
  H   H70       1.0  0.77480  0.55150  0.19220  1.0000
  H   H71       1.0  0.05150  0.72520  0.44220  1.0000
  H   H72       1.0  0.94850  0.27480  0.94220  1.0000
  H   H73       1.0  0.70290  0.06930  0.47510  1.0000
  H   H74       1.0  0.43070  0.20290  0.22510  1.0000
  H   H75       1.0  0.29710  0.93070  0.97510  1.0000
  H   H76       1.0  0.56930  0.79710  0.72510  1.0000
  H   H77       1.0  0.20290  0.43070  0.77490  1.0000
  H   H78       1.0  0.79710  0.56930  0.27490  1.0000
  H   H79       1.0  0.06930  0.70290  0.52490  1.0000
  H   H80       1.0  0.93070  0.29710  0.02490  1.0000
  C   C49       1.0  0.74560  0.93190  0.25630  1.0000
  C   C50       1.0  0.56810  0.24560  0.00630  1.0000
  C   C51       1.0  0.25440  0.06810  0.75630  1.0000
  C   C52       1.0  0.43190  0.75440  0.50630  1.0000
  C   C53       1.0  0.24560  0.56810  0.99370  1.0000
  C   C54       1.0  0.75440  0.43190  0.49370  1.0000
  C   C55       1.0  0.93190  0.74560  0.74370  1.0000
  C   C56       1.0  0.06810  0.25440  0.24370  1.0000
  C   C57       1.0  0.74630  0.92430  0.36180  1.0000
  C   C58       1.0  0.57570  0.24630  0.11180  1.0000
  C   C59       1.0  0.25370  0.07570  0.86180  1.0000
  C   C60       1.0  0.42430  0.75370  0.61180  1.0000
  C   C61       1.0  0.24630  0.57570  0.88820  1.0000
  C   C62       1.0  0.75370  0.42430  0.38820  1.0000
  C   C63       1.0  0.92430  0.74630  0.63820  1.0000
  C   C64       1.0  0.07570  0.25370  0.13820  1.0000
  H   H81       1.0  0.72410  0.91190  0.37950  1.0000
  H   H82       1.0  0.58810  0.22410  0.12950  1.0000
  H   H83       1.0  0.27590  0.08810  0.87950  1.0000
  H   H84       1.0  0.41190  0.77590  0.62950  1.0000
  H   H85       1.0  0.22410  0.58810  0.87050  1.0000
  H   H86       1.0  0.77590  0.41190  0.37050  1.0000
  H   H87       1.0  0.91190  0.72410  0.62050  1.0000
  H   H88       1.0  0.08810  0.27590  0.12050  1.0000
  H   H89       1.0  0.76640  0.90820  0.37570  1.0000
  H   H90       1.0  0.59180  0.26640  0.12570  1.0000
  H   H91       1.0  0.23360  0.09180  0.87570  1.0000
  H   H92       1.0  0.40820  0.73360  0.62570  1.0000
  H   H93       1.0  0.26640  0.59180  0.87430  1.0000
  H   H94       1.0  0.73360  0.40820  0.37430  1.0000
  H   H95       1.0  0.90820  0.76640  0.62430  1.0000
  H   H96       1.0  0.09180  0.23360  0.12430  1.0000
  C   C65       1.0  0.75890  0.10680  0.49740  1.0000
  C   C66       1.0  0.39320  0.25890  0.24740  1.0000
  C   C67       1.0  0.24110  0.89320  0.99740  1.0000
  C   C68       1.0  0.60680  0.74110  0.74740  1.0000
  C   C69       1.0  0.25890  0.39320  0.75260  1.0000
  C   C70       1.0  0.74110  0.60680  0.25260  1.0000
  C   C71       1.0  0.10680  0.75890  0.50260  1.0000
  C   C72       1.0  0.89320  0.24110  0.00260  1.0000
  C   C73       1.0  0.73590  0.86280  0.06040  1.0000
  C   C74       1.0  0.63720  0.23590  0.81040  1.0000
  C   C75       1.0  0.26410  0.13720  0.56040  1.0000
  C   C76       1.0  0.36280  0.76410  0.31040  1.0000
  C   C77       1.0  0.23590  0.63720  0.18960  1.0000
  C   C78       1.0  0.76410  0.36280  0.68960  1.0000
  C   C79       1.0  0.86280  0.73590  0.93960  1.0000
  C   C80       1.0  0.13720  0.26410  0.43960  1.0000
  H   H97       1.0  0.73370  0.86270  0.99400  1.0000
  H   H98       1.0  0.63730  0.23370  0.74400  1.0000
  H   H99       1.0  0.26630  0.13730  0.49400  1.0000
  H   H100      1.0  0.36270  0.76630  0.24400  1.0000
  H   H101      1.0  0.23370  0.63730  0.25600  1.0000
  H   H102      1.0  0.76630  0.36270  0.75600  1.0000
  H   H103      1.0  0.86270  0.73370  0.00600  1.0000
  H   H104      1.0  0.13730  0.26630  0.50600  1.0000
  C   C81       1.0  0.74080  0.89630  0.20630  1.0000
  C   C82       1.0  0.60370  0.24080  0.95630  1.0000
  C   C83       1.0  0.25920  0.10370  0.70630  1.0000
  C   C84       1.0  0.39630  0.75920  0.45630  1.0000
  C   C85       1.0  0.24080  0.60370  0.04370  1.0000
  C   C86       1.0  0.75920  0.39630  0.54370  1.0000
  C   C87       1.0  0.89630  0.74080  0.79370  1.0000
  C   C88       1.0  0.10370  0.25920  0.29370  1.0000
  C   C89       1.0  0.73760  0.89370  0.10640  1.0000
  C   C90       1.0  0.60630  0.23760  0.85640  1.0000
  C   C91       1.0  0.26240  0.10630  0.60640  1.0000
  C   C92       1.0  0.39370  0.76240  0.35640  1.0000
  C   C93       1.0  0.23760  0.60630  0.14360  1.0000
  C   C94       1.0  0.76240  0.39370  0.64360  1.0000
  C   C95       1.0  0.89370  0.73760  0.89360  1.0000
  C   C96       1.0  0.10630  0.26240  0.39360  1.0000
  H   H105      1.0  0.73670  0.91510  0.07100  1.0000
  H   H106      1.0  0.58490  0.23670  0.82100  1.0000
  H   H107      1.0  0.26330  0.08490  0.57100  1.0000
  H   H108      1.0  0.41510  0.76330  0.32100  1.0000
  H   H109      1.0  0.23670  0.58490  0.17900  1.0000
  H   H110      1.0  0.76330  0.41510  0.67900  1.0000
  H   H111      1.0  0.91510  0.73670  0.92900  1.0000
  H   H112      1.0  0.08490  0.26330  0.42900  1.0000
  C   C97       1.0  0.73570  0.16510  0.52320  1.0000
  C   C98       1.0  0.33490  0.23570  0.27320  1.0000
  C   C99       1.0  0.26430  0.83490  0.02320  1.0000
  C   C100      1.0  0.66510  0.76430  0.77320  1.0000
  C   C101      1.0  0.23570  0.33490  0.72680  1.0000
  C   C102      1.0  0.76430  0.66510  0.22680  1.0000
  C   C103      1.0  0.16510  0.73570  0.47680  1.0000
  C   C104      1.0  0.83490  0.26430  0.97680  1.0000
  H   H113      1.0  0.71830  0.18240  0.50820  1.0000
  H   H114      1.0  0.31760  0.21830  0.25820  1.0000
  H   H115      1.0  0.28170  0.81760  0.00820  1.0000
  H   H116      1.0  0.68240  0.78170  0.75820  1.0000
  H   H117      1.0  0.21830  0.31760  0.74180  1.0000
  H   H118      1.0  0.78170  0.68240  0.24180  1.0000
  H   H119      1.0  0.18240  0.71830  0.49180  1.0000
  H   H120      1.0  0.81760  0.28170  0.99180  1.0000
  C   C105      1.0  0.78450  0.11510  0.56380  1.0000
  C   C106      1.0  0.38490  0.28450  0.31380  1.0000
  C   C107      1.0  0.21550  0.88490  0.06380  1.0000
  C   C108      1.0  0.61510  0.71550  0.81380  1.0000
  C   C109      1.0  0.28450  0.38490  0.68620  1.0000
  C   C110      1.0  0.71550  0.61510  0.18620  1.0000
  C   C111      1.0  0.11510  0.78450  0.43620  1.0000
  C   C112      1.0  0.88490  0.21550  0.93620  1.0000
  H   H121      1.0  0.80180  0.09790  0.58070  1.0000
  H   H122      1.0  0.40210  0.30180  0.33070  1.0000
  H   H123      1.0  0.19820  0.90210  0.08070  1.0000
  H   H124      1.0  0.59790  0.69820  0.83070  1.0000
  H   H125      1.0  0.30180  0.40210  0.66930  1.0000
  H   H126      1.0  0.69820  0.59790  0.16930  1.0000
  H   H127      1.0  0.09790  0.80180  0.41930  1.0000
  H   H128      1.0  0.90210  0.19820  0.91930  1.0000
  C   C113      1.0  0.73560  0.13290  0.47470  1.0000
  C   C114      1.0  0.36710  0.23560  0.22470  1.0000
  C   C115      1.0  0.26440  0.86710  0.97470  1.0000
  C   C116      1.0  0.63290  0.76440  0.72470  1.0000
  C   C117      1.0  0.23560  0.36710  0.77530  1.0000
  C   C118      1.0  0.76440  0.63290  0.27530  1.0000
  C   C119      1.0  0.13290  0.73560  0.52530  1.0000
  C   C120      1.0  0.86710  0.26440  0.02530  1.0000
  H   H129      1.0  0.71910  0.12920  0.42540  1.0000
  H   H130      1.0  0.37080  0.21910  0.17540  1.0000
  H   H131      1.0  0.28090  0.87080  0.92540  1.0000
  H   H132      1.0  0.62920  0.78090  0.67540  1.0000
  H   H133      1.0  0.21910  0.37080  0.82460  1.0000
  H   H134      1.0  0.78090  0.62920  0.32460  1.0000
  H   H135      1.0  0.12920  0.71910  0.57460  1.0000
  H   H136      1.0  0.87080  0.28090  0.07460  1.0000
  C   C121      1.0  0.78490  0.14820  0.60560  1.0000
  C   C122      1.0  0.35180  0.28490  0.35560  1.0000
  C   C123      1.0  0.21510  0.85180  0.10560  1.0000
  C   C124      1.0  0.64820  0.71510  0.85560  1.0000
  C   C125      1.0  0.28490  0.35180  0.64440  1.0000
  C   C126      1.0  0.71510  0.64820  0.14440  1.0000
  C   C127      1.0  0.14820  0.78490  0.39440  1.0000
  C   C128      1.0  0.85180  0.21510  0.89440  1.0000
  H   H137      1.0  0.80390  0.15400  0.64680  1.0000
  H   H138      1.0  0.34600  0.30390  0.39680  1.0000
  H   H139      1.0  0.19610  0.84600  0.14680  1.0000
  H   H140      1.0  0.65400  0.69610  0.89680  1.0000
  H   H141      1.0  0.30390  0.34600  0.60320  1.0000
  H   H142      1.0  0.69610  0.65400  0.10320  1.0000
  H   H143      1.0  0.15400  0.80390  0.35320  1.0000
  H   H144      1.0  0.84600  0.19610  0.85320  1.0000
  C   C129      1.0  0.73950  0.83280  0.19710  1.0000
  C   C130      1.0  0.66720  0.23950  0.94710  1.0000
  C   C131      1.0  0.26050  0.16720  0.69710  1.0000
  C   C132      1.0  0.33280  0.76050  0.44710  1.0000
  C   C133      1.0  0.23950  0.66720  0.05290  1.0000
  C   C134      1.0  0.76050  0.33280  0.55290  1.0000
  C   C135      1.0  0.83280  0.73950  0.80290  1.0000
  C   C136      1.0  0.16720  0.26050  0.30290  1.0000
  H   H145      1.0  0.74020  0.81110  0.23080  1.0000
  H   H146      1.0  0.68890  0.24020  0.98080  1.0000
  H   H147      1.0  0.25980  0.18890  0.73080  1.0000
  H   H148      1.0  0.31110  0.75980  0.48080  1.0000
  H   H149      1.0  0.24020  0.68890  0.01920  1.0000
  H   H150      1.0  0.75980  0.31110  0.51920  1.0000
  H   H151      1.0  0.81110  0.74020  0.76920  1.0000
  H   H152      1.0  0.18890  0.25980  0.26920  1.0000
  C   C137      1.0  0.74130  0.86420  0.24950  1.0000
  C   C138      1.0  0.63580  0.24130  0.99950  1.0000
  C   C139      1.0  0.25870  0.13580  0.74950  1.0000
  C   C140      1.0  0.36420  0.75870  0.49950  1.0000
  C   C141      1.0  0.24130  0.63580  0.00050  1.0000
  C   C142      1.0  0.75870  0.36420  0.50050  1.0000
  C   C143      1.0  0.86420  0.74130  0.75050  1.0000
  C   C144      1.0  0.13580  0.25870  0.25050  1.0000
  H   H153      1.0  0.74280  0.86300  0.31600  1.0000
  H   H154      1.0  0.63700  0.24280  0.06600  1.0000
  H   H155      1.0  0.25720  0.13700  0.81600  1.0000
  H   H156      1.0  0.36300  0.75720  0.56600  1.0000
  H   H157      1.0  0.24280  0.63700  0.93400  1.0000
  H   H158      1.0  0.75720  0.36300  0.43400  1.0000
  H   H159      1.0  0.86300  0.74280  0.68400  1.0000
  H   H160      1.0  0.13700  0.25720  0.18400  1.0000
