data_image0
_chemical_formula_structural       Co3O16C6H2C2H2C4H2C2H2C6H2C4H2C2H2C6H2C2H2C4H2C2H2C8H2C2H2C4H2C2H2C6H2C4H2C2H2C6H2C2H2C4H2C2H2C2
_chemical_formula_sum              "Co3 O16 C84 H44"
_cell_length_a       13.3473
_cell_length_b       16.8933
_cell_length_c       16.9561
_cell_angle_alpha    111.241
_cell_angle_beta     100.051
_cell_angle_gamma    111.337

_space_group_name_H-M_alt    "P 1"
_space_group_IT_number       1

loop_
  _space_group_symop_operation_xyz
  'x, y, z'

loop_
  _atom_site_type_symbol
  _atom_site_label
  _atom_site_symmetry_multiplicity
  _atom_site_fract_x
  _atom_site_fract_y
  _atom_site_fract_z
  _atom_site_occupancy
  Co  Co1       1.0  0.83163  0.75605  0.85991  1.0000
  Co  Co2       1.0  0.16837  0.24395  0.14009  1.0000
  Co  Co3       1.0  1.00000  1.00000  0.00000  1.0000
  O   O1        1.0  0.90100  0.73110  0.97840  1.0000
  O   O2        1.0  0.09900  0.26890  0.02160  1.0000
  O   O3        1.0  0.88990  0.86310  0.99110  1.0000
  O   O4        1.0  0.11010  0.13690  0.00890  1.0000
  O   O5        1.0  0.34970  0.33090  0.13980  1.0000
  O   O6        1.0  0.65030  0.66910  0.86020  1.0000
  O   O7        1.0  0.25850  0.38220  0.23050  1.0000
  O   O8        1.0  0.74150  0.61780  0.76950  1.0000
  O   O9        1.0  0.23590  0.18650  0.20290  1.0000
  O   O10       1.0  0.76410  0.81350  0.79710  1.0000
  O   O11       1.0  0.12140  0.02740  0.11310  1.0000
  O   O12       1.0  0.87860  0.97260  0.88690  1.0000
  O   O13       1.0  0.03260  0.21580  0.17910  1.0000
  O   O14       1.0  0.96740  0.78420  0.82090  1.0000
  O   O15       1.0  0.91720  0.06290  0.08030  1.0000
  O   O16       1.0  0.08280  0.93710  0.91970  1.0000
  C   C1        1.0  0.90580  0.81160  0.02820  1.0000
  C   C2        1.0  0.09420  0.18840  0.97180  1.0000
  C   C3        1.0  0.92090  0.84260  0.12410  1.0000
  C   C4        1.0  0.07910  0.15740  0.87590  1.0000
  C   C5        1.0  0.96080  0.80190  0.17070  1.0000
  C   C6        1.0  0.03920  0.19810  0.82930  1.0000
  H   H1        1.0  0.97553  0.75017  0.14034  1.0000
  H   H2        1.0  0.02447  0.24983  0.85966  1.0000
  C   C7        1.0  0.97930  0.83710  0.26200  1.0000
  C   C8        1.0  0.02070  0.16290  0.73800  1.0000
  H   H3        1.0  0.00896  0.81053  0.29485  1.0000
  H   H4        1.0  0.99104  0.18947  0.70515  1.0000
  C   C9        1.0  0.95520  0.90990  0.30560  1.0000
  C   C10       1.0  0.04480  0.09010  0.69440  1.0000
  C   C11       1.0  0.90980  0.94820  0.25710  1.0000
  C   C12       1.0  0.09020  0.05180  0.74290  1.0000
  H   H5        1.0  0.88991  0.99710  0.28585  1.0000
  H   H6        1.0  0.11009  0.00290  0.71415  1.0000
  C   C13       1.0  0.89450  0.91250  0.16530  1.0000
  C   C14       1.0  0.10550  0.08750  0.83470  1.0000
  H   H7        1.0  0.86485  0.93819  0.13134  1.0000
  H   H8        1.0  0.13515  0.06181  0.86866  1.0000
  C   C15       1.0  0.97690  0.95450  0.40490  1.0000
  C   C16       1.0  0.02310  0.04550  0.59510  1.0000
  C   C17       1.0  0.91160  0.90550  0.44280  1.0000
  C   C18       1.0  0.08840  0.09450  0.55720  1.0000
  C   C19       1.0  0.81970  0.81090  0.38880  1.0000
  C   C20       1.0  0.18030  0.18910  0.61120  1.0000
  H   H9        1.0  0.80538  0.78025  0.32575  1.0000
  H   H10       1.0  0.19462  0.21975  0.67425  1.0000
  C   C21       1.0  0.75020  0.76170  0.42450  1.0000
  C   C22       1.0  0.24980  0.23830  0.57550  1.0000
  C   C23       1.0  0.77690  0.80570  0.51750  1.0000
  C   C24       1.0  0.22310  0.19430  0.48250  1.0000
  H   H11       1.0  0.73338  0.77049  0.54307  1.0000
  H   H12       1.0  0.26662  0.22951  0.45693  1.0000
  C   C25       1.0  0.86490  0.89950  0.57560  1.0000
  C   C26       1.0  0.13510  0.10050  0.42440  1.0000
  H   H13       1.0  0.87563  0.92776  0.63812  1.0000
  H   H14       1.0  0.12437  0.07224  0.36188  1.0000
  C   C27       1.0  0.93680  0.95150  0.54200  1.0000
  C   C28       1.0  0.06320  0.04850  0.45800  1.0000
  C   C29       1.0  0.65220  0.66820  0.36990  1.0000
  C   C30       1.0  0.34780  0.33180  0.63010  1.0000
  C   C31       1.0  0.64590  0.59870  0.29170  1.0000
  C   C32       1.0  0.35410  0.40130  0.70830  1.0000
  H   H15       1.0  0.71251  0.61207  0.27543  1.0000
  H   H16       1.0  0.28749  0.38793  0.72457  1.0000
  C   C33       1.0  0.54950  0.51050  0.23490  1.0000
  C   C34       1.0  0.45050  0.48950  0.76510  1.0000
  H   H17       1.0  0.54807  0.46485  0.18095  1.0000
  H   H18       1.0  0.45193  0.53515  0.81905  1.0000
  C   C35       1.0  0.45210  0.49370  0.26400  1.0000
  C   C36       1.0  0.54790  0.50630  0.73600  1.0000
  C   C37       1.0  0.45320  0.56070  0.33790  1.0000
  C   C38       1.0  0.54680  0.43930  0.66210  1.0000
  H   H19       1.0  0.38659  0.54996  0.35404  1.0000
  H   H20       1.0  0.61341  0.45004  0.64596  1.0000
  C   C39       1.0  0.55030  0.64280  0.38800  1.0000
  C   C40       1.0  0.44970  0.35720  0.61200  1.0000
  H   H21       1.0  0.55009  0.68827  0.44114  1.0000
  H   H22       1.0  0.44991  0.31173  0.55886  1.0000
  C   C41       1.0  0.35000  0.39670  0.20720  1.0000
  C   C42       1.0  0.65000  0.60330  0.79280  1.0000
  C   C43       1.0  0.20040  0.10040  0.18050  1.0000
  C   C44       1.0  0.79960  0.89960  0.81950  1.0000
  C   C45       1.0  0.26540  0.07650  0.24350  1.0000
  C   C46       1.0  0.73460  0.92350  0.75650  1.0000
  C   C47       1.0  0.36000  0.14900  0.32000  1.0000
  C   C48       1.0  0.64000  0.85100  0.68000  1.0000
  H   H23       1.0  0.38604  0.21366  0.33103  1.0000
  H   H24       1.0  0.61396  0.78634  0.66897  1.0000
  C   C49       1.0  0.41790  0.12870  0.38130  1.0000
  C   C50       1.0  0.58210  0.87130  0.61870  1.0000
  H   H25       1.0  0.48316  0.17925  0.43274  1.0000
  H   H26       1.0  0.51684  0.82075  0.56726  1.0000
  C   C51       1.0  0.38050  0.03610  0.36720  1.0000
  C   C52       1.0  0.61950  0.96390  0.63280  1.0000
  C   C53       1.0  0.29090  0.96250  0.29120  1.0000
  C   C54       1.0  0.70910  0.03750  0.70880  1.0000
  H   H27       1.0  0.26786  0.89777  0.27889  1.0000
  H   H28       1.0  0.73214  0.10223  0.72111  1.0000
  C   C55       1.0  0.23270  0.98520  0.23090  1.0000
  C   C56       1.0  0.76730  0.01480  0.76910  1.0000
  H   H29       1.0  0.16800  0.93421  0.17931  1.0000
  H   H30       1.0  0.83200  0.06579  0.82069  1.0000
  C   C57       1.0  0.44150  0.01730  0.43520  1.0000
  C   C58       1.0  0.55850  0.98270  0.56480  1.0000
  C   C59       1.0  0.55070  0.03120  0.44490  1.0000
  C   C60       1.0  0.44930  0.96880  0.55510  1.0000
  C   C61       1.0  0.61000  0.05980  0.38920  1.0000
  C   C62       1.0  0.39000  0.94020  0.61080  1.0000
  H   H31       1.0  0.56850  0.06549  0.34179  1.0000
  H   H32       1.0  0.43150  0.93451  0.65821  1.0000
  C   C63       1.0  0.72390  0.07990  0.39960  1.0000
  C   C64       1.0  0.27610  0.92010  0.60040  1.0000
  C   C65       1.0  0.78250  0.06460  0.46700  1.0000
  C   C66       1.0  0.21750  0.93540  0.53300  1.0000
  H   H33       1.0  0.85943  0.07538  0.47516  1.0000
  H   H34       1.0  0.14057  0.92462  0.52484  1.0000
  C   C67       1.0  0.72800  0.03420  0.52080  1.0000
  C   C68       1.0  0.27200  0.96580  0.47920  1.0000
  H   H35       1.0  0.76902  0.02442  0.56508  1.0000
  H   H36       1.0  0.23098  0.97558  0.43492  1.0000
  C   C69       1.0  0.61280  0.01690  0.51220  1.0000
  C   C70       1.0  0.38720  0.98310  0.48780  1.0000
  C   C71       1.0  0.77680  0.10260  0.33710  1.0000
  C   C72       1.0  0.22320  0.89740  0.66290  1.0000
  C   C73       1.0  0.89070  0.16700  0.36850  1.0000
  C   C74       1.0  0.10930  0.83300  0.63150  1.0000
  H   H37       1.0  0.93346  0.20241  0.43161  1.0000
  H   H38       1.0  0.06654  0.79759  0.56839  1.0000
  C   C75       1.0  0.94310  0.18020  0.30730  1.0000
  C   C76       1.0  0.05690  0.81980  0.69270  1.0000
  H   H39       1.0  0.02151  0.22622  0.32890  1.0000
  H   H40       1.0  0.97849  0.77378  0.67110  1.0000
  C   C77       1.0  0.88190  0.12660  0.21410  1.0000
  C   C78       1.0  0.11810  0.87340  0.78590  1.0000
  C   C79       1.0  0.76940  0.06510  0.18410  1.0000
  C   C80       1.0  0.23060  0.93490  0.81590  1.0000
  H   H41       1.0  0.72683  0.02980  0.12102  1.0000
  H   H42       1.0  0.27317  0.97020  0.87898  1.0000
  C   C81       1.0  0.71550  0.05290  0.24400  1.0000
  C   C82       1.0  0.28450  0.94710  0.75600  1.0000
  H   H43       1.0  0.63562  0.01013  0.22187  1.0000
  H   H44       1.0  0.36438  0.98987  0.77813  1.0000
  C   C83       1.0  0.95080  0.13580  0.15170  1.0000
  C   C84       1.0  0.04920  0.86420  0.84830  1.0000
