data_image0
_chemical_formula_structural       O2C2H2Fe7O28C2H2O8C2H2C2H2C2H2C2H2C2H2C2H2C2H2O2H4
_chemical_formula_sum              "O40 C18 H22 Fe7"
_cell_length_a       6.8366
_cell_length_b       10.967
_cell_length_c       14.884
_cell_angle_alpha    111.35
_cell_angle_beta     97.42
_cell_angle_gamma    92.39

_space_group_name_H-M_alt    "P 1"
_space_group_IT_number       1

loop_
  _space_group_symop_operation_xyz
  'x, y, z'

loop_
  _atom_site_type_symbol
  _atom_site_label
  _atom_site_symmetry_multiplicity
  _atom_site_fract_x
  _atom_site_fract_y
  _atom_site_fract_z
  _atom_site_occupancy
  O   O1        1.0  0.99690  0.77010  0.11670  1.0000
  O   O2        1.0  0.00310  0.22990  0.88330  1.0000
  C   C1        1.0  0.83690  0.71710  0.06340  1.0000
  C   C2        1.0  0.16310  0.28290  0.93660  1.0000
  H   H1        1.0  0.74590  0.77240  0.05170  1.0000
  H   H2        1.0  0.25410  0.22760  0.94830  1.0000
  Fe  Fe1       1.0  0.50000  0.50000  0.00000  1.0000
  Fe  Fe2       1.0  0.08487  0.95747  0.21015  1.0000
  Fe  Fe3       1.0  0.91513  0.04253  0.78985  1.0000
  Fe  Fe4       1.0  0.16393  0.19804  0.43013  1.0000
  Fe  Fe5       1.0  0.83607  0.80196  0.56987  1.0000
  Fe  Fe6       1.0  0.30007  0.25087  0.23808  1.0000
  Fe  Fe7       1.0  0.69993  0.74913  0.76192  1.0000
  O   O3        1.0  0.13860  0.27180  0.57300  1.0000
  O   O4        1.0  0.86140  0.72820  0.42700  1.0000
  O   O5        1.0  0.18630  0.13260  0.29250  1.0000
  O   O6        1.0  0.81370  0.86740  0.70750  1.0000
  O   O7        1.0  0.33710  0.91520  0.14630  1.0000
  O   O8        1.0  0.66290  0.08480  0.85370  1.0000
  O   O9        1.0  0.94370  0.01290  0.10280  1.0000
  O   O10       1.0  0.05630  0.98710  0.89720  1.0000
  O   O11       1.0  0.78870  0.59780  0.02480  1.0000
  O   O12       1.0  0.21130  0.40220  0.97520  1.0000
  O   O13       1.0  0.87930  0.11900  0.40900  1.0000
  O   O14       1.0  0.12070  0.88100  0.59100  1.0000
  O   O15       1.0  0.19580  0.87250  0.30420  1.0000
  O   O16       1.0  0.80420  0.12750  0.69580  1.0000
  O   O17       1.0  0.44450  0.28750  0.46990  1.0000
  O   O18       1.0  0.55550  0.71250  0.53010  1.0000
  O   O19       1.0  0.16720  0.41190  0.31210  1.0000
  O   O20       1.0  0.83280  0.58810  0.68790  1.0000
  O   O21       1.0  0.04580  0.36380  0.42770  1.0000
  O   O22       1.0  0.95420  0.63620  0.57230  1.0000
  O   O23       1.0  0.06070  0.21940  0.13310  1.0000
  O   O24       1.0  0.93930  0.78060  0.86690  1.0000
  O   O25       1.0  0.41170  0.36810  0.17290  1.0000
  O   O26       1.0  0.58830  0.63190  0.82710  1.0000
  O   O27       1.0  0.44930  0.10940  0.14670  1.0000
  O   O28       1.0  0.55070  0.89060  0.85330  1.0000
  O   O29       1.0  0.63560  0.39770  0.08440  1.0000
  O   O30       1.0  0.36440  0.60230  0.91560  1.0000
  C   C3        1.0  0.25510  0.91990  0.39400  1.0000
  C   C4        1.0  0.74490  0.08010  0.60600  1.0000
  H   H3        1.0  0.29510  0.86060  0.42250  1.0000
  H   H4        1.0  0.70490  0.13940  0.57750  1.0000
  O   O31       1.0  0.25660  0.33770  0.73000  1.0000
  O   O32       1.0  0.74340  0.66230  0.27000  1.0000
  O   O33       1.0  0.26700  0.03880  0.45050  1.0000
  O   O34       1.0  0.73300  0.96120  0.54950  1.0000
  O   O35       1.0  0.54560  0.30760  0.33970  1.0000
  O   O36       1.0  0.45440  0.69240  0.66030  1.0000
  O   O37       1.0  0.82050  0.96320  0.25850  1.0000
  O   O38       1.0  0.17950  0.03680  0.74150  1.0000
  C   C5        1.0  0.26670  0.28230  0.64460  1.0000
  C   C6        1.0  0.73330  0.71770  0.35540  1.0000
  H   H5        1.0  0.38250  0.24270  0.63010  1.0000
  H   H6        1.0  0.61750  0.75730  0.36990  1.0000
  C   C7        1.0  0.58480  0.36500  0.15060  1.0000
  C   C8        1.0  0.41520  0.63500  0.84940  1.0000
  H   H7        1.0  0.68110  0.33620  0.18630  1.0000
  H   H8        1.0  0.31890  0.66380  0.81370  1.0000
  C   C9        1.0  0.05980  0.43080  0.37680  1.0000
  C   C10       1.0  0.94020  0.56920  0.62320  1.0000
  H   H9        1.0  0.98340  0.50150  0.38790  1.0000
  H   H10       1.0  0.01660  0.49850  0.61210  1.0000
  C   C11       1.0  0.56900  0.32040  0.42590  1.0000
  C   C12       1.0  0.43100  0.67960  0.57410  1.0000
  H   H11       1.0  0.69200  0.35850  0.46240  1.0000
  H   H12       1.0  0.30800  0.64150  0.53760  1.0000
  C   C13       1.0  0.45080  0.98930  0.12540  1.0000
  C   C14       1.0  0.54920  0.01070  0.87460  1.0000
  H   H13       1.0  0.54830  0.94960  0.08950  1.0000
  H   H14       1.0  0.45170  0.05040  0.91050  1.0000
  C   C15       1.0  0.93810  0.12160  0.09290  1.0000
  C   C16       1.0  0.06190  0.87840  0.90710  1.0000
  H   H15       1.0  0.83050  0.12980  0.05110  1.0000
  H   H16       1.0  0.16950  0.87020  0.94890  1.0000
  C   C17       1.0  0.77400  0.03300  0.33740  1.0000
  C   C18       1.0  0.22600  0.96700  0.66260  1.0000
  H   H17       1.0  0.64250  0.01950  0.34440  1.0000
  H   H18       1.0  0.35750  0.98050  0.65560  1.0000
  O   O39       1.0  0.43310  0.64820  0.13170  1.0000
  O   O40       1.0  0.56690  0.35180  0.86830  1.0000
  H   H19       1.0  0.42220  0.73020  0.14880  1.0000
  H   H20       1.0  0.57780  0.26980  0.85120  1.0000
  H   H21       1.0  0.50340  0.66840  0.18740  1.0000
  H   H22       1.0  0.49660  0.33160  0.81260  1.0000
