data_image0
_chemical_formula_structural       O2C2H2Fe6MnO26C2H2O4H4O4C2H2C2H2C2H2O2C2H2C2H2O2C2H2C2H2
_chemical_formula_sum              "O40 C18 H22 Fe6 Mn1"
_cell_length_a       6.8216
_cell_length_b       10.968
_cell_length_c       14.889
_cell_angle_alpha    111.14
_cell_angle_beta     97.28
_cell_angle_gamma    92.22

_space_group_name_H-M_alt    "P 1"
_space_group_IT_number       1

loop_
  _space_group_symop_operation_xyz
  'x, y, z'

loop_
  _atom_site_type_symbol
  _atom_site_label
  _atom_site_symmetry_multiplicity
  _atom_site_fract_x
  _atom_site_fract_y
  _atom_site_fract_z
  _atom_site_occupancy
  O   O1        1.0  0.14280  0.39560  0.08770  1.0000
  O   O2        1.0  0.85720  0.60440  0.91230  1.0000
  C   C1        1.0  0.09200  0.36400  0.15030  1.0000
  C   C2        1.0  0.90800  0.63600  0.84970  1.0000
  H   H1        1.0  0.18680  0.33420  0.18590  1.0000
  H   H2        1.0  0.81320  0.66580  0.81410  1.0000
  Fe  Fe1       1.0  0.66360  0.19780  0.43036  1.0000
  Fe  Fe2       1.0  0.33640  0.80220  0.56964  1.0000
  Fe  Fe3       1.0  0.80130  0.25160  0.23977  1.0000
  Fe  Fe4       1.0  0.19870  0.74840  0.76023  1.0000
  Fe  Fe5       1.0  0.58720  0.95880  0.21135  1.0000
  Fe  Fe6       1.0  0.41280  0.04120  0.78865  1.0000
  Mn  Mn1       1.0  0.00000  0.50000  0.00000  1.0000
  O   O3        1.0  0.67770  0.13380  0.29140  1.0000
  O   O4        1.0  0.32230  0.86620  0.70860  1.0000
  O   O5        1.0  0.84020  0.91660  0.14860  1.0000
  O   O6        1.0  0.15980  0.08340  0.85140  1.0000
  O   O7        1.0  0.94570  0.29030  0.47200  1.0000
  O   O8        1.0  0.05430  0.70970  0.52800  1.0000
  O   O9        1.0  0.66600  0.41330  0.31180  1.0000
  O   O10       1.0  0.33400  0.58670  0.68820  1.0000
  O   O11       1.0  0.64900  0.26790  0.57440  1.0000
  O   O12       1.0  0.35100  0.73210  0.42560  1.0000
  O   O13       1.0  0.56140  0.21810  0.13390  1.0000
  O   O14       1.0  0.43860  0.78190  0.86610  1.0000
  O   O15       1.0  0.69500  0.87550  0.30720  1.0000
  O   O16       1.0  0.30500  0.12450  0.69280  1.0000
  O   O17       1.0  0.38000  0.12080  0.40850  1.0000
  O   O18       1.0  0.62000  0.87920  0.59150  1.0000
  O   O19       1.0  0.32500  0.96470  0.26080  1.0000
  O   O20       1.0  0.67500  0.03530  0.73920  1.0000
  O   O21       1.0  0.44420  0.01270  0.10420  1.0000
  O   O22       1.0  0.55580  0.98730  0.89580  1.0000
  O   O23       1.0  0.95000  0.11140  0.14900  1.0000
  O   O24       1.0  0.05000  0.88860  0.85100  1.0000
  O   O25       1.0  0.49960  0.77030  0.11940  1.0000
  O   O26       1.0  0.50040  0.22970  0.88060  1.0000
  O   O27       1.0  0.29940  0.60130  0.02540  1.0000
  O   O28       1.0  0.70060  0.39870  0.97460  1.0000
  C   C3        1.0  0.94900  0.99070  0.12670  1.0000
  C   C4        1.0  0.05100  0.00930  0.87330  1.0000
  H   H3        1.0  0.04230  0.95070  0.08810  1.0000
  H   H4        1.0  0.95770  0.04930  0.91190  1.0000
  O   O29       1.0  0.76200  0.33920  0.73100  1.0000
  O   O30       1.0  0.23800  0.66080  0.26900  1.0000
  O   O31       1.0  0.93870  0.65510  0.13570  1.0000
  O   O32       1.0  0.06130  0.34490  0.86430  1.0000
  H   H5        1.0  0.96450  0.74510  0.14230  1.0000
  H   H6        1.0  0.03550  0.25490  0.85770  1.0000
  H   H7        1.0  0.08100  0.65830  0.15910  1.0000
  H   H8        1.0  0.91900  0.34170  0.84090  1.0000
  O   O33       1.0  0.76500  0.03690  0.45120  1.0000
  O   O34       1.0  0.23500  0.96310  0.54880  1.0000
  O   O35       1.0  0.91240  0.36820  0.17340  1.0000
  O   O36       1.0  0.08760  0.63180  0.82660  1.0000
  C   C5        1.0  0.76300  0.28300  0.64420  1.0000
  C   C6        1.0  0.23700  0.71700  0.35580  1.0000
  H   H9        1.0  0.87900  0.24300  0.63010  1.0000
  H   H10       1.0  0.12100  0.75700  0.36990  1.0000
  C   C7        1.0  0.55700  0.43000  0.37790  1.0000
  C   C8        1.0  0.44300  0.57000  0.62210  1.0000
  H   H11       1.0  0.48110  0.50140  0.39010  1.0000
  H   H12       1.0  0.51890  0.49860  0.60990  1.0000
  C   C9        1.0  0.34200  0.71850  0.06590  1.0000
  C   C10       1.0  0.65800  0.28150  0.93410  1.0000
  H   H13       1.0  0.24850  0.77370  0.05590  1.0000
  H   H14       1.0  0.75150  0.22630  0.94410  1.0000
  O   O37       1.0  0.04900  0.30800  0.34040  1.0000
  O   O38       1.0  0.95100  0.69200  0.65960  1.0000
  C   C11       1.0  0.75500  0.92400  0.39640  1.0000
  C   C12       1.0  0.24500  0.07600  0.60360  1.0000
  H   H15       1.0  0.79840  0.86480  0.42470  1.0000
  H   H16       1.0  0.20160  0.13520  0.57530  1.0000
  C   C13       1.0  0.27500  0.03400  0.33920  1.0000
  C   C14       1.0  0.72500  0.96600  0.66080  1.0000
  H   H17       1.0  0.14430  0.01810  0.34710  1.0000
  H   H18       1.0  0.85570  0.98190  0.65290  1.0000
  O   O39       1.0  0.54200  0.36160  0.42790  1.0000
  O   O40       1.0  0.45800  0.63840  0.57210  1.0000
  C   C15       1.0  0.06800  0.32150  0.42530  1.0000
  C   C16       1.0  0.93200  0.67850  0.57470  1.0000
  H   H19       1.0  0.19050  0.36070  0.46150  1.0000
  H   H20       1.0  0.80950  0.63930  0.53850  1.0000
  C   C17       1.0  0.44200  0.11900  0.09320  1.0000
  C   C18       1.0  0.55800  0.88100  0.90680  1.0000
  H   H21       1.0  0.33730  0.12570  0.04900  1.0000
  H   H22       1.0  0.66270  0.87430  0.95100  1.0000
