data_image0
_chemical_formula_structural       Fe6MgO34C2H2O6C2H2C2H2C2H2C2H2C2H2C2H2C2H2C2H6
_chemical_formula_sum              "Fe6 Mg1 O40 C18 H22"
_cell_length_a       6.8025
_cell_length_b       10.887
_cell_length_c       14.826
_cell_angle_alpha    111.43
_cell_angle_beta     97.52
_cell_angle_gamma    92.24

_space_group_name_H-M_alt    "P 1"
_space_group_IT_number       1

loop_
  _space_group_symop_operation_xyz
  'x, y, z'

loop_
  _atom_site_type_symbol
  _atom_site_label
  _atom_site_symmetry_multiplicity
  _atom_site_fract_x
  _atom_site_fract_y
  _atom_site_fract_z
  _atom_site_occupancy
  Fe  Fe1       1.0  0.33418  0.30223  0.06940  1.0000
  Fe  Fe2       1.0  0.66582  0.69777  0.93060  1.0000
  Fe  Fe3       1.0  0.19961  0.24986  0.26152  1.0000
  Fe  Fe4       1.0  0.80039  0.75014  0.73848  1.0000
  Fe  Fe5       1.0  0.41351  0.54375  0.28954  1.0000
  Fe  Fe6       1.0  0.58649  0.45625  0.71046  1.0000
  Mg  Mg1       1.0  0.00000  0.00000  0.50000  1.0000
  O   O1        1.0  0.31220  0.36700  0.20770  1.0000
  O   O2        1.0  0.68780  0.63300  0.79230  1.0000
  O   O3        1.0  0.49800  0.26800  0.61703  1.0000
  O   O4        1.0  0.50200  0.73200  0.38297  1.0000
  O   O5        1.0  0.16090  0.58550  0.35302  1.0000
  O   O6        1.0  0.83910  0.41450  0.64698  1.0000
  O   O7        1.0  0.28410  0.09690  0.52580  1.0000
  O   O8        1.0  0.71590  0.90310  0.47420  1.0000
  O   O9        1.0  0.55560  0.48840  0.39647  1.0000
  O   O10       1.0  0.44440  0.51160  0.60353  1.0000
  O   O11       1.0  0.86940  0.10090  0.41673  1.0000
  O   O12       1.0  0.13060  0.89910  0.58327  1.0000
  O   O13       1.0  0.61820  0.38230  0.09084  1.0000
  O   O14       1.0  0.38180  0.61770  0.90916  1.0000
  O   O15       1.0  0.43980  0.28140  0.36647  1.0000
  O   O16       1.0  0.56020  0.71860  0.63353  1.0000
  O   O17       1.0  0.08990  0.13450  0.32762  1.0000
  O   O18       1.0  0.91010  0.86550  0.67238  1.0000
  O   O19       1.0  0.33290  0.08820  0.18852  1.0000
  O   O20       1.0  0.66710  0.91180  0.81148  1.0000
  O   O21       1.0  0.05280  0.21050  0.02913  1.0000
  O   O22       1.0  0.94720  0.78950  0.97087  1.0000
  O   O23       1.0  0.45320  0.13580  0.07175  1.0000
  O   O24       1.0  0.54680  0.86420  0.92825  1.0000
  O   O25       1.0  0.30160  0.62810  0.19514  1.0000
  O   O26       1.0  0.69840  0.37190  0.80486  1.0000
  O   O27       1.0  0.24010  0.16090  0.76880  1.0000
  O   O28       1.0  0.75990  0.83910  0.23120  1.0000
  O   O29       1.0  0.06530  0.85450  0.37160  1.0000
  O   O30       1.0  0.93470  0.14550  0.62840  1.0000
  O   O31       1.0  0.05240  0.39060  0.35360  1.0000
  O   O32       1.0  0.94760  0.60940  0.64640  1.0000
  O   O33       1.0  0.22940  0.46260  0.04960  1.0000
  O   O34       1.0  0.77060  0.53740  0.95040  1.0000
  C   C1        1.0  0.24170  0.58020  0.10430  1.0000
  C   C2        1.0  0.75830  0.41980  0.89570  1.0000
  H   H1        1.0  0.20240  0.63980  0.07530  1.0000
  H   H2        1.0  0.79760  0.36020  0.92470  1.0000
  O   O35       1.0  0.35920  0.22780  0.92584  1.0000
  O   O36       1.0  0.64080  0.77220  0.07416  1.0000
  O   O37       1.0  0.95290  0.19090  0.16080  1.0000
  O   O38       1.0  0.04710  0.80910  0.83920  1.0000
  O   O39       1.0  0.67880  0.53760  0.24143  1.0000
  O   O40       1.0  0.32120  0.46240  0.75857  1.0000
  C   C3        1.0  0.33690  0.21740  0.56360  1.0000
  C   C4        1.0  0.66310  0.78260  0.43640  1.0000
  H   H3        1.0  0.24870  0.27430  0.55090  1.0000
  H   H4        1.0  0.75130  0.72570  0.44910  1.0000
  C   C5        1.0  0.91930  0.13540  0.35060  1.0000
  C   C6        1.0  0.08070  0.86460  0.64940  1.0000
  H   H5        1.0  0.82080  0.16420  0.31530  1.0000
  H   H6        1.0  0.17920  0.83580  0.68470  1.0000
  C   C7        1.0  0.56100  0.38040  0.40740  1.0000
  C   C8        1.0  0.43900  0.61960  0.59260  1.0000
  H   H7        1.0  0.66750  0.37340  0.45090  1.0000
  H   H8        1.0  0.33250  0.62660  0.54910  1.0000
  C   C9        1.0  0.04770  0.51190  0.37430  1.0000
  C   C10       1.0  0.95230  0.48810  0.62570  1.0000
  H   H9        1.0  0.94850  0.55160  0.40950  1.0000
  H   H10       1.0  0.05150  0.44840  0.59050  1.0000
  C   C11       1.0  0.43760  0.06900  0.12240  1.0000
  C   C12       1.0  0.56240  0.93100  0.87760  1.0000
  H   H11       1.0  0.51200  0.99630  0.10990  1.0000
  H   H12       1.0  0.48800  0.00370  0.89010  1.0000
  C   C13       1.0  0.72570  0.46720  0.16180  1.0000
  C   C14       1.0  0.27430  0.53280  0.83820  1.0000
  H   H13       1.0  0.85790  0.47970  0.15460  1.0000
  H   H14       1.0  0.14210  0.52030  0.84540  1.0000
  C   C15       1.0  0.92980  0.17920  0.07300  1.0000
  C   C16       1.0  0.07020  0.82080  0.92700  1.0000
  H   H15       1.0  0.80530  0.14270  0.03640  1.0000
  H   H16       1.0  0.19470  0.85730  0.96360  1.0000
  C   C17       1.0  0.22850  0.21510  0.85490  1.0000
  C   C18       1.0  0.77150  0.78490  0.14510  1.0000
  H   H17       1.0  0.10960  0.25100  0.86970  1.0000
  H   H18       1.0  0.89040  0.74900  0.13030  1.0000
  H   H19       1.0  0.09000  0.78000  0.37900  1.0000
  H   H20       1.0  0.91000  0.22000  0.62100  1.0000
  H   H21       1.0  0.99100  0.85600  0.32800  1.0000
  H   H22       1.0  0.00900  0.14400  0.67200  1.0000
